ELIETH ZUÑIGA, 57, Botswana
SALVADOR PEREIRA, 90, Andorra
MARTA EUGENIA ROJAS, 90, Finlandia
CECILIA JIMENEZ, 87, Maputo
JUAN MANUEL PADILLA, 74, Accra
CARLOS LUIS BUSTAMANTE, 78, Taiwan
TELEMACO SALAS, 2, Harare
MAYELA GUTIERREZ, 88, Lomé
LISIMACO SOLANO, 32, Surinam
ANA ISABEL QUIROS, 97, Papúa-Nueva Guinea
VICTOR MANUEL CHANTO, 91, Mauritania
MAURIN SMITH, 15, Indonesia
IVETTE HERNANDEZ, 43, Mauricio
MIGUEL ANGEL CHAVARRIA, 18, Mozambique
GERMAN VALVERDE, 18, Yamusukro
ROBERTO MONGE, 43, Sudo Georgia y los Islas Sandwich del Sur
ZORAIDA MATA, 100, Nicosia
ISABEL RAMOS, 82, Mauritania
LUZ HERMINIA MENA, 23, Isla Jan Mayen
CARMELINA GAMBOA, 12, Madrid
MANUEL ANTONIO OVIEDO, 59, Ucrania
BETULIA DIAZ, 24, Jerusalén Este
QUIRINO JIMENEZ, 90, Kazajstán
ROBERTO BARBOZA, 56, Timor Oriental
MARIA TERESA FALLAS, 58, Birmania
MARIA TERESA CHACON, 2, Sri Jayawardenapura Kotte
FLORY VALERIO, 43, Burkina Faso
OLMAN QUESADA, 47, Swazilandia
BERNAL ANTONIO MONGE, 41, Burkina Faso
JOSE ANGEL SEGURA, 82, Luxemburgo
RAUL MORA, 73, Sudán
ELIZABETH CASCANTE, 25, Conakri
BENILDO SEGURA, 6, Santa Lucía
CARMEN MASIS, 3, Eritrea
ALFREDO RIVERA, 90, Taiwan
SONIA ROSARIO SOLIS, 12, Varsovia
WILLIAM MORA, 62, Georgetown
GERARDO CORRALES, 5, Ereván
JESUS GERARDO RAMIREZ, 71, Marianas del Nort
ADELA RODRIGUEZ, 12, Angola
ROMILIO VENEGAS, 14, Liberia
MIGUEL QUIROS, 37, Antananarivo
EDUARDO ANTONIO FERNANDEZ, 40, Kuala Lumpur
VIRGINIA ZAMORA, 36, Abuya
ANNIE PARRALES, 79, Ciudad del Vaticano
MARGARITA MORA, 63, Trípoli
VIRGINIA BARRANTES, 5, Chisináu
HUGO CHAVARRIA, 41, Victoria
MACLOVIA VENEGAS, 15, Caracas
BERNARDITA LEIVA, 84, Ámsterdam
ALICIA DE LOS ANGELES ARAYA, 34, Ámsterdam
SONIA ELIETH ALPIZAR, 37, Vanuatu
RUDIO LEON, 35, Tokio
MARIA ELENA ELIZONDO, 7, Islas Virgenes Británicas
GABRIEL GONZALEZ, 70, Ucrania
JOSE AGUILAR, 14, Brunei Darussalam
LILLY MONGE, 24, Accra
SALVADOR RETANA, 11, Guam
MILAGRO ACOSTA, 79, Suva
HEIDY LORIA, 12, Ecuador
CARMEN GUZMAN, 5, Alemania
MERY LOU ARROYO, 6, Katmandú
ALVARO FLORES, 5, Lisboa
RODOLFO ALVARO CARMONA, 53, Camboya
GERARDO ALVARADO, 3, Port Vila
MARIA DE LOS ANGELES HIDALGO, 18, Isla Jan Mayen
JESUS PICADO, 53, Managua
VICTOR HUGO CERDAS, 15, Ghana
DORINA FLORES, 72, Hanói
GERMAN ARRIETA, 72, Noruega
RAFAEL ANTONIO CALVO, 43, República Democrática del Congo
VICTOR MANUEL CALVO, 18, Barbados
GLADYS MOSCOA, 89, Surinam
FERNANDO PICADO, 94, Suva
MARIA EUGENIA SOLANO, 95, Ciudad del Vaticano
ODILIE ZELEDON, 17, Ecuador
VERA VIOLETA ESQUIVEL, 81, Fidji
JOSE LEONEL DELGADO, 9, Sofía
WILLIAM QUIROS, 78, Lilongüe
CARLOS ULISES AZOFEIFA, 57, Bahrein
NORMA ARAYA, 39, Kuwait
CARLOS FERNANDO MONGE, 74, Nicaragua
FRANCISCO CASTILLO, 96, Wellington
MIGUEL ANGEL BARRANTES, 94, Minsk
HERNAN UREÑA, 12, Abuya
ROSARIO JIMENEZ, 54, Bridgetown
BELARMINA VARGAS, 93, Nom Pen
JOSE ISAAC VEGA, 38, República Dominicana
CARLOS EDUARDO ROVIRA, 7, Papúa-Nueva Guinea
MARIA CECILIA KELLY, 61, Bogotá
CRISTOBALINA SALAS, 33, Santa Elena
MARIA ISABEL ESQUIVEL, 77, Copenhague
LUIS ADILIO AGUILAR, 10, Tirana
FERNANDO HUGO JIMENEZ, 65, Francia
GERARDO VICTOR CORONADO, 62, Guam
ROBERTO ORTEGA, 68, Croacia
RAFAEL ANGEL SALAZAR, 8, Australia
EDWIN MESEN, 98, Puerto España
MARGARITA SONIA ARCE, 24, Nepal
ANTONIO EVELIO FALLAS, 57, Isla Man
ENRIQUE GUILLERMO BLANCO, 69, Yuba
URBANO CALDERON, 30, Minsk
JUAN GABRIEL ARAYA, 57, Katmandú
ALEXIS ELIZONDO, 21, Amán
ALEXIS AZOFEIFA, 16, Corea del Sur
BETTY HERNANDEZ, 95, Thimphu
EDISON VALVERDE, 42, Panamá
RAUL ANTONIO MARROQUIN, 21, San Salvador
JOSE ARTURO VARELA, 21, Moldavia
JOSEFA HERNANDEZ, 24, Ciudad del Vaticano
EDUARDO FRANCISCO ROJAS, 53, Isla De Navidad
JOSE BRAULIO FLORES, 96, Paraguay
MARIA EUGENIA MAIRENA, 61, Barbados
LEONARDO MORA, 17, Ghana
OMAR AGUILAR, 37, Comores
MARIA TERESA FLORES, 98, Montevideo
AUDELIA DELGADO, 47, Afganistán
JEANNETTE SANDI, 44, Letonia
MONSERRAT ARTURO MORALES, 72, Lima
SONIA DEL CARMEN GAMBOA, 8, Nairobi
ULISES VINDAS, 78, Grecia
ANA CECILIA ULLOA, 98, Teherán
ZAIRA LOPEZ, 11, Bosnia-Herzegovina
LUIS ENRIQUE ESCALANTE, 85, Territorio Británico del Océano Indico
EDGAR ARMANDO CUADRA, 67, Venezuela
CECILIA JIMENEZ, 8, Lesotho
NORMA LILIAM SANDOVAL, 72, Bratislava
ROSALINA SOLIS, 66, Suva
ENGRACIA DELGADO, 31, Sudo Georgia y los Islas Sandwich del Sur
ELSIE TENORIO, 55, Andorra
MARIA ANTONIA BADILLA, 90, Uzbekistán
WALTER HERNANDEZ, 24, Benín
DAGOBERTO GUERRERO, 30, Montenegro
LEDA MARIA CORDERO, 72, San Cristobal y Nevis
DAISY ESQUIVEL, 34, Ciudad del Vaticano
MARCO ANTONIO DURAN, 51, Tailandia
CARLOS LUIS BARRIENTOS, 64, El Salvador
YADIRA CONTRERAS, 91, Porto-Novo
MARTA ZAMORA, 99, Burundi
ATILIANO JIMENEZ, 72, Atenas
RAFAELA CERDAS, 53, Gibraltar
JORGE EMILIO LOOSER, 46, San Cristobal y Nevis
MIRIAM QUIROS, 13, Taskent
MARIA CECILIA BARQUERO, 98, Londres
MIGUEL ANGEL CUBILLO, 96, Sofía
ELIZABETH MARIN, 79, Italia
GILBERT MADRIGAL, 79, Aruba
GERARDO FONSECA, 59, Turquía
LUZ MARINA CASTILLO, 74, Gambia
MARIA CORDERO, 28, Yakarta
ZAIRA MARIA MONTERO, 77, Benín
FRANCISCA ODALISA SANDI, 48, Kingstown
ELICINIO UMAÑA, 46, Moldavia
ELIECER ESQUIVEL, 59, Reunión
ALICIA CHACON, 96, Liubliana
ANA MARIA GUZMAN, 89, Maseru
CARLOS ANTONIO GUZMAN, 49, Brasil
MARIA LUISA VINDAS, 76, Arabia Saudita
IMARA SOTOMAYOR, 95, Kuwait
ANA MARIA CALDERON, 50, Suecia
MELVIN CASTRO, 95, Djibouti
LUZ ARGENTINA ARBUROLA, 88, Bakú
GRACE CHACON, 81, Lisboa
ALFONSO ROBLES, 11, Moscú
ROGELIO GRANADOS, 84, Kigali
LEONARDO HERNANDEZ, 94, Tadjikistan
RAMONA MARINA RIVERA, 66, Santa Elena
BERNARDITA BARBOZA, 59, Mónaco
MARIA LILIAM RAMIREZ, 27, Ghana
MARIO ABEL SERRANO, 14, San Vincente y Granadinas
JUANITA FREER, 29, Nom Pen
JORGE LUIS DELGADO, 57, Swazilandia
FRANCISCO ZELEDON, 33, Bagdad
MARIA TERESA ANGULO, 53, Papúa-Nueva Guinea
ADAN NUÑEZ, 22, Kiev
MARIA EUGENIA ROJAS, 48, Aruba
ODILIE VARGAS, 6, Bruselas
DEYANIRA CASCANTE, 53, Pristina
FELIX EDUARDO ARBUROLA, 51, Brasilia
LIGIA CHAVARRIA, 54, Sarajevo
GLORIA ROJAS, 19, Puerto Rico
CARMEN MARIA ROJAS, 94, Amán
ANA ISABEL SOTO, 64, Palau
MARGARITA MONTERO, 72, Manama
VICTOR MANUEL FERNANDEZ, 66, Mónaco
JOSE MARIA GONZALEZ, 84, Brasilia
CLAUDINA UREÑA, 35, Turquía
MARIA GABRIELA ARCE, 90, Funafuti
SANDRA MARIA CASTRO, 20, Santo Tomé
VIRGINIA SOTO, 9, Malé
MARIA REGINA BERMUDEZ, 88, Camboya
ALBA CHINCHILLA, 62, Polonia
CARLOS ANGEL MIRANDA, 51, Sucre
RODOLFO GERARDO PORTILLA, 81, Pretoria
JOSE FRANCISCO CORRALES, 20, Malasia
ADILIA ROBLES, 34, Gambia
GERMAN HIDALGO, 63, Malabo
CARLOS GERARDO AGUILAR, 29, San Cristobal y Nevis
VILMA MARIN, 45, Argelia
LIGIA VARGAS, 68, Gran Bretaña
JOSE RAFAEL CHAVES, 43, Islas Feroe
MARIA ISABEL VEGA, 2, Eslovenia
ANTONIO QUESADA, 85, Zaire
EDWIN PEREIRA, 34, Tonga
DENNY ARAYA, 72, Buyumbura
MAXIMO SANCHEZ, 47, Malí
LIGIA MARIA CHAVES, 60, Ankara
MANUEL MORA, 62, Harare
RODRIGO AGUERO, 69, Samoa
EDUARDO MORRIS, 27, Astaná
GERARDO VEGA, 59, Sofía
EUGENIA LACHNER, 92, Yuba
WALTER VALVERDE, 89, Dili
CLOTILDE GODINEZ, 97, Nepal
MARIA ESTER MENDOZA, 47, Islas Caimán
CARMEN MARIA AGUILAR, 1, Bangladesh
ARCELIO FALLAS, 69, Palikir
JUDITH HERNANDEZ, 25, Santa Elena
TERESA JIMENEZ, 8, Azerbaiyán
MAYRA BARRANTES, 4, Bélgica
IRIS MARIA UREÑA, 13, Nueva Zelanda
VICTOR MANUEL JIMENEZ, 24, Vientián
LUZMILDA VEGA, 32, Vilna
JUAN DE DIOS CANTILLO, 10, Dili
MARGARITA UREÑA, 28, Seúl
MARIA MORA, 36, Gran Bretaña
VIRGINIA ARGUEDAS, 46, Kinsasa
MARIA CECILIA VALVERDE, 72, Maldivas
MARIA SOLANO, 78, Mauritania
EMILCE MATAMOROS, 64, Yibuti
AMADO DURAN, 79, Teherán
JOSE ELISEO RODRIGUEZ, 64, Ottawa
RAFAEL ANGEL SABORIO, 20, Perú
GLADYS SOLANO, 15, Costa de Marfil
MARIA VIRGINIA RIVERA, 32, Pretoria
ROSA MURILLO, 90, Bolivia
ELIZABETH CALDERON, 4, Berna
NELSON JOSE MONGE, 64, Moldavia
ELIZABETH PALOMO, 64, Bélgica
HERNAN EDUARDO SOLANO, 46, Sarajevo
CARLOS EDUARDO MUÑOZ, 54, Qatar
NORMA QUESADA, 5, Dinamarca
LIGIA MARIA AVILA, 100, San Pedro y Miquelón
LUZ MARIA AGUERO, 58, Argelia
EDWIN GONZALEZ, 65, Port Vila
DORA GUZMAN, 14, Uagadugú
JOSE ALCIDES CORRALES, 13, Ottawa
OLGA CARBALLO, 96, Seychelles
MARIA EUGENIA JIMENEZ, 36, Dusambé
SOLEDAD VARGAS, 70, Chisináu
FROILAN GARCIA, 52, Luxemburgo
JOSE GUILLERMO VEGA, 56, Bogotá
JOSE MANUEL PEREZ, 45, Ankara
GRACE MARIA VEGA, 7, Nasáu
FLOR DEL CARMEN ARROYO, 26, Ghana
RICARDO MORA, 52, Dublín
RICARDO CHAVARRIA, 61, República del Congo
MARINA CUBILLO, 97, Dusambé
MARIA MENDOZA, 35, Turkmenistan
ANA ROSA LEON, 12, Berna
MARIA ESTER BARBOZA, 22, Berlín
MARTA LILIA MATA, 54, Yaren
FRANCISCO MIRANDA, 94, Nukualofa
JOSE RAFAEL LOPEZ, 37, Bagdad
MARIO ALBERTO ORTEGA, 3, Barbados
ARNOLDO MORA, 2, Islamabad
FABIO MORA, 5, Kuala Lumpur
VILMA MONGE, 28, Nicaragua
MARIA CECILIA ORTIZ, 1, Martinica
JORGE ARTURO MURILLO, 15, Sri Jayawardenapura Kotte
MIGUEL ANGEL GODINEZ, 54, Varsovia
VERA LUZ RETANA, 16, China
LUIS EDUARDO BARRANTES, 51, Maputo
ANA MARIA FERNANDEZ, 68, Omán
CARLOS EDUARDO MUÑOZ, 89, Astaná
PAULINA SALAZAR, 16, Vaticano
BELARMINA MORA, 60, Londres
EMILCE BARBOZA, 29, Colombia
MARIA DEL CARMEN LOPEZ, 51, Basseterre
EDGAR ENRIQUE GOMEZ, 81, Timor Oriental
ENECINIO VARGAS, 96, Riga
MARINO VALVERDE, 51, República Checa
ALEXIS MANUEL BARBOZA, 10, Federación Rusa
EUGENIA RODRIGUEZ, 54, Yamusukro
PATRICIA ARTAVIA, 43, Túnez
VIRGINIA MONGE, 64, Panamá
EUGENIO LOPEZ, 31, República Democrática del Congo
JUANA MARIN, 22, Palau
OLGA SOSA, 84, Turkmenistan
PEREGRINA VALVERDE, 7, Antillas Holandesas
FRANCISCO SOTO, 93, Isla Man
MARIA ELENA MORA, 54, Bagdad
HERMES FONSECA, 20, Luxemburgo
JOSEFINA PEARSON, 24, Bamako
FELIX ANGEL RAMIREZ, 87, Rabat
FLOR MARIA BONILLA, 59, Washington D. C.
ANA MATILDE GONZALEZ, 32, Libreville
ELIDA MURILLO, 52, Malawi
FELIX EDUARDO AGUILAR, 94, Vaticano
MIGUEL ANGEL SIBAJA, 88, Liechtenstein
VICTOR MANUEL GOMEZ, 11, Santo Tomé
HILDA MARIA GARITA, 12, Niamey
WALTER SEVILLA, 82, San Pedro y Miquelón
FABIO LUIS SOTO, 88, Myanmar
DORIS MARIA PETERS, 50, Suiza
ELIAS CORDERO, 6, Harare
MARIA ANGELA CASCANTE, 3, Australia
DEYANIRA MOSCOA, 91, Georgetown
RECAREDO JIMENEZ, 48, Palikir
MERCEDES DURAN, 82, Libreville
ESPERANZA AGUERO, 39, Túnez
CARLOS ALBERTO JENKINS, 27, Teherán
ALICIA BEATRIZ CHINCHILLA, 77, Bolivia
OLMAN ALEXIS SANDI, 53, Port Vila
JUAN MARIA FERNANDEZ, 24, San Marino
EDWIN RETANA, 34, Bahrein
MARIA ISABEL MENA, 27, Sofía
MARIA CECILIA CHAVES, 36, Copenhague
MANUEL ARIAS, 6, Biskek
RAFAELA ISABEL ACUÑA, 83, Macedonia del Norte
FRANCISCO MENESES, 74, Puerto Moresby
TERESA SOTO, 18, Lima
LUIS EDUARDO TENCIO, 29, Santo Tomé
GUILLERMO ARAYA, 25, Madagascar
FRANCISCO GARCIA, 8, Nicosia
MARIA CECILIA SEQUEIRA, 35, Países Bajos
RICARDO ENRIQUE MULLINS, 16, San Tomé y Príncipe
AIDA LUZ RODRIGUEZ, 49, Santa Lucía
TERESA QUIROS, 44, Naipyidó
RAFAEL ANGEL SANDI, 7, Montenegro
MARIA ELVIRA HIDALGO, 66, Irán
CARLOS SANCHEZ, 76, Buenos Aires
ANGEL MARIN, 6, Palestina
OLGA MARTA PAGANELLA, 70, Ankara
MARCELINO LOPEZ, 88, Tokelau
OLMAN JIMENEZ, 95, Bakú
CARMEN MARIN, 58, Isla De Navidad
MARIA LUCIA FALLAS, 80, Asjabad
GERARDO PADILLA, 20, Ámsterdam
ANGIOLET BARRANTES, 90, Japón
MARTA EUGENIA RETANA, 65, México
FRANCISCO VARGAS, 18, Libreville
OLGA MARTA JIMENEZ, 39, Islas Turcas y Caicos
LUIS FERNANDO CHARPENTIER, 41, Vaticano
SADY MARIA SOLIS, 11, Santo Domingo
FLOR DE MARIA MURILLO, 86, Kinsasa
CECILIA CHAVARRIA, 86, Dodoma
MANUEL ENRIQUE GONZALEZ, 1, Lomé
FRANCISCO RAMIREZ, 88, Lima
CARLOS DELGADO, 74, Corea del Norte
MARIA ISABEL NIETO, 54, Apia
MANUEL PORRAS, 94, Eritrea
RENE RIVAS, 56, Bolivia
MARIA ROSA VALVERDE, 67, Cabo Verde
ELSA DIAZ, 2, Hungría
GUADALUPE MONTERO, 82, Nueva Caledonia
ADEMAR BARRANTES, 83, Tíbet
FLOR VALVERDE, 41, Jamaica
JUAN DE DIOS MONTERO, 60, Eslovenia
VILMA ARIAS, 96, Taipéi
ELIECER GERARDO JIMENEZ, 26, Guatemala
DINORAH LOPEZ, 55, Gabón
YADIRA NAVARRO, 6, Chile
ANAVITA UREÑA, 8, Nueva Caledonia
ANA ISABEL MONTERO, 22, Jerusalén Este
MELBA MARIA ZUÑIGA, 99, Suiza
JESUS RAMON ARAYA, 94, Vaticano
CARLOS MANUEL VICENTE, 68, Moroni
MARIO SALAZAR, 68, Luxemburgo
ALBERTINA MONGE, 32, Pretoria
OMAR ROBLES, 19, Dili
MARIA ANTONIETA CALVO, 58, Andorra
JOSE MIGUEL ACUÑA, 95, Hanói
LEILA COTO, 16, Riad
JEANNETTE JOSEFINA HERNANDEZ, 92, Bután
MARIA CECILIA QUIROS, 78, Turkmenistan
MARIA LUZ GRANADOS, 60, Kabul
BERNAL FRANCISCO VARGAS, 18, Sierra Leona
CARMELINA FERNANDEZ, 32, Taskent
MATILDE VALVERDE, 55, Sri Lanka
RAFAEL ANGEL HIDALGO, 70, Pionyang
JORGE ALBERTO CORRALES, 14, Luanda
ROBERTO RAMON, 13, Conakri
MARIA DEL ROSARIO RAMIREZ, 8, Victoria
OLGA MARIA MORA, 15, Venezuela
OSCAR LOPEZ, 38, Groenlandia
JOSE GABRIEL SOLERA, 62, Bolivia
TERESA ARLEY, 97, Sofía
VILMA ORTIZ, 20, Jersey
JOSE ANTONIO BLANCO, 42, Jerusalén Este
BLANCA FE BLANCO, 63, Laos
ODALIA FONSECA, 88, Costa Rica
CARMEN SALAZAR, 2, Asjabad
EDWIN CAMPOS, 78, Vaduz
MARIA ANTONIETA SANCHEZ, 38, Omán
YOLANDA BLANCO, 62, Omán
ESTRELLA GAMBOA, 86, Trinidad y Tobago
MARIA CECILIA CALDERON, 51, Sarajevo
CRISTINA VALVERDE, 73, Kirguistán
ANA ISABEL UMAÑA, 47, Trinidad y Tobago
JOSE ELIAS BARBOZA, 2, Países Bajos
MIREYA VARGAS, 97, Bridgetown
JEANNETTE LOBO, 1, Castries
MARIA CRISTINA PIEDRA, 24, París
MELITINA BARRANTES, 2, Pionyang
MARIA VIRGINIA CERDAS, 61, Lituania
JOSE MARIA CORDERO, 17, Guatemala
JORGE CORDERO, 24, Mónaco
MARTA MORA, 62, Eslovenia
ROSE MARIE BLACHSHAW, 33, Luanda
MARIA ROSA RAMIREZ, 22, Naipyidó
MIGUEL ANGEL CARRANZA, 100, Ecuador
MANUEL BARBOZA, 4, Varsovia
HECTOR GUILLERMO ALVARADO, 94, Ecuador
ARACELI QUIROS, 95, Archipiélago de Svalbard
ANA ROSA HIDALGO, 17, Jersey
LUIS ANGEL OCAMPO, 83, Malasia
GERARDO PORRAS, 41, Irlanda
AUDELI MORA, 22, Nom Pen
PLACIDA CRUZ, 97, El Cairo
ADELAIDA NAVARRO, 52, Niue
GRACIELA JIMENEZ, 80, Vilna
GUILLERMO ENRIQUE SOTO, 28, Djibouti
MARIA CECILIA MURILLO, 49, Armenia
MARTA MURILLO, 58, Panamá
MARTA EUGENIA VINDAS, 1, Yemen
ALCIDES VENEGAS, 19, Djibouti
JULIANA FLORA HERNANDEZ, 81, República Checa
TERESA MARIA VARGAS, 23, Corea del Sur
OLMAN FERNANDEZ, 18, Tuvalu
NORMA ADITA MORA, 52, Malí
JULIA MARIA CORELLA, 10, Viena
GUSTAVO MORALES, 76, Taskent
RODOLFO AMADOR, 7, Malta
GRACE ELIZONDO, 70, Bruselas
ALEJANDRO RUIZ, 36, República del Congo
MIRIAM MADRIGAL, 69, Turkmenistan
VICTOR EDUARDO MORALES, 63, Yibuti
MARIA DE LOS ANGELES DIAZ, 18, Belice
MARIA DEL ROSARIO VARGAS, 92, Vientián
FLORA CALVO, 86, Corea del Sur
VICTOR MANUEL ALFARO, 62, Liubliana
MARIA CECILIA GUZMAN, 77, Egipto
GERARDO CHAVES, 86, República Centroafricana
RODOLFO VILLALOBOS, 67, Yamusukro
VICENTE PICADO, 80, Bangkok
ANDRES CORELLA, 54, Suecia
JUAN VICTOR DUARTE, 44, Islas Salomón
VICTOR EMILIO ACOSTA, 88, Guinea Ecuatorial
LIDIA CASCANTE, 52, Manila
RAFAEL ANGEL VALVERDE, 81, Turkmenistan
EDUARDO ROJAS, 15, Roma
GRACE DIAZ, 32, Marianas del Nort
CARMEN LETICIA MORA, 55, Eslovenia
RAFAEL ANGEL ROMERO, 28, Maseru
VICTOR ANTONIO UREÑA, 19, Jerusalén Este
MARIA DE LOS ANGELES CALDERON, 99, Botswana
MARIA VIRGINIA CORDERO, 56, Bulgaria
ZORAIDA ZUÑIGA, 93, Sri Lanka
OCTAVIO ROJAS, 93, Lesotho
SAMUEL CASTRO, 83, Uruguay
GUIDO CAMACHO, 53, Birmania
JOSE ALVARO SANCHEZ, 44, Sáhara Occidental
ALBA LUZ SANCHEZ, 11, Malawi
JORGE GOICOECHEA, 54, Isla Ascension
MARIA EUGENIA VARGAS, 66, Puerto España
ROQUE BONILLA, 84, Chad
CLARA DIANA AGUERO, 61, Omán
RAFAEL MINOR JIMENEZ, 76, Maseru
SONIA PADILLA, 14, Isla De Navidad
ARNOLDO ARAYA, 94, Jartum
CARLOS MANUEL PEREIRA, 41, Granada
ROBERTO GATGENS, 95, México
ISRAEL VARGAS, 20, Sierra Leona
CARLOS EDUARDO VASQUEZ, 78, Archipiélago de Svalbard
ANGELA MORA, 28, Togo
BLANCA ROSA CHAVARRIA, 6, República Democrática del Congo
ELSA DELGADO, 5, Katmandú
ENRIQUE SANCHO, 88, Myanmar
ZAYRA MENESES, 55, Vietnam
BLANCA ROSA ARIAS, 11, Sudán
ISABEL VEGA, 34, Manila
NORA VIRGINIA ZUÑIGA, 64, Nicaragua
ISABEL BARRANTES, 52, Guinea Ecuatorial
RAMON GARRO, 96, Andorra
ROSA ISABEL GUZMAN, 79, República Guinea
JOEL MORA, 8, Viena
MARINA RODRIGUEZ, 37, Angola
IVONNE ESTER SABAH, 51, Uruguay
FRANCISCO CAMACHO, 5, Brunei Darussalam
MANUEL FRANCISCO SALAS, 62, Tokio
RICARDO UREÑA, 57, Swazilandia
GUILLERMO FALLAS, 99, Pekín
FELICITAS ZUÑIGA, 38, Corea del Norte
MARIA ISABEL MELENDEZ, 17, Chipre
BERNARDO GERARDO OCONITRILLO, 94, Argel
JOSEFA MORA, 98, San Pedro y Miquelón
TOMAS SILES, 14, San Tomé y Príncipe
CECILIA MAYELA MONTERO, 54, Tuvalu
SALVADOR VARGAS, 94, Yakarta
ODILI MORA, 19, Martinica
LETICIA SOLIS, 3, Yamena
MARGARITA SANCHEZ, 93, Jamaica
MARIA ISABEL MENDEZ, 48, Atenas
CLAUDIO GERARDO BLANCO, 51, Irlanda
JULIETA SOLIS, 53, Turkmenistan
HUGO MENA, 72, Nom Pen
LUZMILDA SOLANO, 85, Nicosia
ZULAY LEON, 21, Manila
VERA VIOLETA MATA, 40, Bogotá
LETICIA MORA, 64, Italia
CARLOS GERARDO CORRALES, 38, Abu Dabi
MARIA ISABEL QUIROS, 41, Australia
MARIA CECILIA CORRALES, 84, Túnez
CARLOS VALVERDE, 70, Bélgica
VIRGITA ALVARADO, 56, Adís Abeba
HAYDEE RAMIREZ, 82, Castries
CARMEN MARIA BERMUDEZ, 79, Majuro
MARCO TULIO MATAMOROS, 71, San Tomé y Príncipe
MARIA SALAZAR, 31, Malé
MIGUEL QUIROS, 34, Zaire
OTILIO CRUZ, 72, Tíbet
TERESITA DEL CARMEN BARRANTES, 22, Malabo
HERALDO ANGULO, 43, Kirguistán
DAGOBERTO VALVERDE, 85, Dublín
HILDA MARIA FLORES, 6, Emiratos Árabes Unidos
VIRGINIA CHINCHILLA, 82, Brasil
SOCORRO ULLOA, 50, Roma
MERCEDES LIDIA QUESADA, 22, Mayotte
ESTRELLA PRADO, 23, Moldavia
FRANCISCO JOSE JIMENEZ, 97, Dominica
OFELIA MARIA VAN DER LAAT, 30, Singapur
AMADO VASQUEZ, 55, Camboya
ALICE CORELLA, 32, Letonia
ANTONIA ADELA SAENZ, 58, San José
CARLOS ALTAMIRANO, 21, Gran Bretaña
OLGA MARIA POVEDA, 56, Basseterre
CARMEN VEGA, 51, Vilna
ARNOLDO BARBERENA, 48, Freetown
RAFAEL ANGEL GOMEZ, 50, Somalia
TERESITA PRADO, 54, Indonesia
MARIO EVELIO LEON, 13, Seúl
JOSE SOTO, 21, Kenia
FRITZ LEHMANN, 80, Sarajevo
MARCOS WILLIAM MORALES, 53, Países Bajos
VIANNEY ZUÑIGA, 37, Estados Federados de Micronesia
ANITA PEREZ, 58, Mascate
MIRIAM CUBILLO, 97, Canadá
FLOR DE MARIA RODRIGUEZ, 48, Etiopía
PROSPERO CHINCHILLA, 7, Jartum
FELICIA MESEN, 27, Adís Abeba
WILLIAM ARCE, 71, Bangkok
MAYRA HERNANDEZ, 100, India
MARIA ISABEL RETANA, 3, Federación Rusa
MIGUEL BERNARDO CALVO, 65, Maldivas
MARIA EMILCE FERNANDEZ, 81, Noruega
FLOR MIREYA ALFARO, 15, Pristina
VICTOR MANUEL MORA, 15, Taipéi
RAFAEL ANGEL VALVERDE, 86, San Vincente y Granadinas
RAMON ANTONIO AZOFEIFA, 87, Ámsterdam
MARIA LILLIAM GARRO, 52, Mauritania
LUZ MORALES, 27, Ottawa
ROSA CHAVARRIA, 86, Guyana
JOSE MANUEL VILLALOBOS, 95, Yaundé
MIRIAN VILLALOBOS, 97, Saint John
IVETTE HERNANDEZ, 38, Santiago
MARIO RODRIGO ZAMORA, 95, Irán
JUANA SOLIS, 39, República Democrática del Congo
MARIO GERARDO HERRERA, 80, Antártida
WALTER SANCHEZ, 19, Hong Kong
AMALIA CECILIA FERNANDEZ, 52, Palestina
VIRGINIA PORRAS, 37, Daca
SOCORRO AZOFEIFA, 19, Islas Caimán
ILMA LOBO, 16, Dinamarca
GLADYS CHAVARRIA, 66, Bamako
MARIA DE LOS ANGELES VEGA, 99, Noruega
OLGA MARTA GRANADOS, 74, Islas Feroe
FLORY ISABEL FOURNIER, 16, Islas Salomón
OCTAVIO JOSE RODRIGUEZ, 69, Ereván
MELITINA SOLANO, 82, Naipyidó
BLANCA CARMEN ARIAS, 45, Santa Elena
ABRAHAM RAMIREZ, 59, Rabat
AURORA MAYELA PACHECO, 7, Montenegro
BENIGNA SANDI, 89, Indonesia
MYRIAM JIMENEZ, 61, París
MARIA ELENA JIMENEZ, 42, Riga
FLORA MARIA DOBLES, 7, Guinea Bissau
OMAR MENDEZ, 50, Mónaco
LIGIA MARIA ROJAS, 19, Sri Lanka
JENNY MARIA LAO, 20, Taskent
IRMA SANCHEZ, 97, Botswana
MIREYA CARMEN SANCHEZ, 27, Gaborone
MARGARITA SIBAJA, 4, Corea del Sur
ALVARO JIMENEZ, 38, Brazzaville
FLOR MARIA BARBOZA, 42, Adís Abeba
EVANGELINA NUÑEZ, 79, Finlandia
LEONEL MADRIGAL, 64, Brunei Darussalam
VILMA MARIA MUÑOZ, 75, Ecuador
GUILLERMO VILLALOBOS, 97, Comores
LUIS ALCIDES CAMACHO, 96, Monrovia
TEOFILO CHACON, 95, Maseru
GERMAN ELIZONDO, 33, Yaren
MARIA ENRIQUETA ZUÑIGA, 13, Madrid
JORGE EDUARDO BRENES, 96, Finlandia
FLOR MARIA MORALES, 47, Montserrat
BLANCA ROSA BADILLA, 8, Mbabane
MANUEL ANTONIO MARTINEZ, 34, Malta
MANUEL MESIAS ARROYO, 71, San Marino
MELIDA GARRO, 88, Vanuatu
BERNARDITA ZUÑIGA, 3, Mauritania
EDUARDO ALBERTO SAENZ, 85, Freetown
AVELINO ARTAVIA, 64, Managua
MARIA INES ZUÑIGA, 40, Corea del Norte
CASTULO VARGAS, 79, Praia
OSCAR HUMBERTO JIMENEZ, 4, Daca
ANABELLE SANCHEZ, 60, Mongolia
ISIDRO CAMBRONERO, 35, Venezuela
VIRGINIA HERRERA, 52, Pionyang
BELEN MAYELA SOLIS, 57, Banjul
ALBA NIEVES MONGE, 99, Bogotá
OSCAR BERNARDO HUERTAS, 76, Liberia
ISRAEL ZUÑIGA, 54, Madagascar
MARIA DE LOS ANGELES RETANA, 9, San Salvador
CARMEN MARIA VALENCIANO, 64, Turkmenistan
EDWIN MADRIZ, 87, Islandia
RONALD ARTURO CORRALES, 4, Niger
YORLENY MORA, 61, Islas Turcas y Caicos
JORGE ANTONIO ALVAREZ, 74, Jerusalén Este
MARIA TERESA MENDEZ, 6, Islas Malvinas
RODRIGO BENAVIDES, 89, Paraguay
MARGARITA CARVAJAL, 49, Apia
ALVARO ENRIQUE CHAVES, 32, Sudán
FLOR MARIA MENDEZ, 16, Samoa
MARIA EMERITA MONGE, 85, Corea del Norte
OLGA CRISTINA SEGURA, 94, Moldavia
FAUSTINO VALVERDE, 42, Estonia
CARMEN MARIA ROJAS, 23, Sudán
VIRGILIO PRADO, 20, Territorio Británico del Océano Indico
FLORY RODRIGUEZ, 78, Malé
OVIDIO FAUSTO CALDERON, 81, Malabo
FRANCISCO QUIROS, 8, Tallin
HORTENSIA MADRIZ, 94, Lisboa
AUREANET SANCHEZ, 99, Madrid
CASILDA PRADO, 15, Andorra
CARLOS MANUEL AGUILAR, 92, Niger
BLANCA ROSA LORIA, 74, Niue
JOSE LUIS SOTO, 32, Antigua y Barbuda
MARIA AURELIA MORA, 35, Manila
GLADYS ZAPATA, 66, Jamaica
GERARDO CASTILLO, 20, Santo Tomé
LUZ MARINA FALLAS, 84, Ruanda
NORMA MURILLO, 21, Nueva Delhi
FLORA MARIA VASQUEZ, 65, Isla Pitcairn
JOSE RAUL CASCANTE, 33, Skopie
ADILIA DELGADO, 19, Timor Oriental
DUNIA FERNANDEZ, 83, Copenhague
MARIA ANTONIETA CALVO, 5, Viena
ALICIA DE LOS ANGELES ARAYA, 42, Polinesia Francesa
CARLOS ALBERTO ROJAS, 45, Etiopía
ADINA JIMENEZ, 9, Kuala Lumpur
GIOVANNI ALVARADO, 73, Archipiélago de Svalbard
RAMON GAMBOA, 40, Nicaragua
ADELFIO RODRIGUEZ, 53, El Cairo
ALVARO MONGE, 30, Pretoria
MIRIAM VIETO, 63, Minsk
JOSE JOAQUIN VARGAS, 90, España
JOSE ANTONIO PORRAS, 98, Moldavia
MARCO ANTONIO RODRIGUEZ, 7, Niamey
MARTA QUESADA, 98, Mozambique
BERTA ROMANINI, 64, San José
JORGE LUIS QUESADA, 95, Isla Jan Mayen
JULIO FRANCISCO VALVERDE, 63, Moscú
TEODOLINDA PORRAS, 51, Malé
MARTA EDUVIGES MONGE, 84, Pakistán
LUIS PAULINO CABRERA, 1, Castries
DONAY DUARTE, 41, Nasáu
ALVARO SALAZAR, 69, Zaire
MAYELA SUAREZ, 53, Manila
AURORA BERMUDEZ, 25, Myanmar
MANUELA CERDAS, 99, República Guinea
EIDA ROJAS, 43, Moscú
LIZANIAS ANGULO, 26, Palestina
JOSE ANGEL UMAÑA, 80, La Habana
RONALD ANTONIO CHAVES, 29, Vietnam
MARIA LORENA ARIAS, 35, Moscú
ALVARO LOPEZ, 67, Bolivia
CLAUDIO DIAZ, 14, Guinea Ecuatorial
LORENZO VILLALOBOS, 75, República Checa
CARLOS EDUARDO SOLIS, 99, Malé
AUXILIADORA ELIZONDO, 61, Venezuela
WILLIAM CESPEDES, 54, Guadalupe
MARIA DE LOS ANGELES CERDAS, 67, Majuro
MISAEL PICADO, 26, Territorio Británico del Océano Indico
SARA CORRALES, 27, Biskek
RAMON ANIBAL GARRO, 91, Kingston
ALCIDES ROMERO, 54, Wellington
MARIA DE LOS ANGELES HIDALGO, 86, Yaundé
JAIME ENRIQUE JIMENEZ, 47, Chile
JUAN DE DIOS LOAIZA, 96, Port Louis
RODRIGO ARIAS, 81, Tanzania
MARIA TERESA MORA, 73, Croacia
ERNESTO JIMENEZ, 10, Yaundé
MARIA ELBA FALLAS, 48, Kiev
RAFAEL ANGEL PERAZA, 86, Nairobi
CLAUDIO SALAZAR, 90, Armenia
FRANKLIN PORRAS, 24, Mauritania
IRIS MARIA GUTIERREZ, 19, Gibraltar
DUNIA VALVERDE, 13, Argel
GLADYS ZUÑIGA, 93, Tokio
MARIA EUGENIA LOPEZ, 66, Mongolia
MARIA ANTONIA JIMENEZ, 8, Caracas
GRACE MARIA SOLIS, 23, Zimbabwe
BHOTTO REINALDO GONZALEZ, 55, Rumanía
MARIA CECILIA MEJIA, 80, Atenas
NURIA MARIA VARGAS, 88, Bruselas
ETELGIVE SANDI, 65, Malé
MARIA ENEIDA SEGURA, 50, Kiev
MARIA CRISTINA JIMENEZ, 61, Montevideo
DAISY GARRO, 36, Pekín
MIGUEL ANGEL MORA, 27, Jartum
ALEXIS JIMENEZ, 34, Costa de Marfil
JOSE MARIA REYES, 11, Moroni
JOSEFA LEON, 24, Rusia
CARLOS MARIA FALLAS, 68, Port Louis
MARIA RAFAELA VENEGAS, 17, Islandia
MARIA CRISTINA OCAMPO, 25, Roseau
MARIA ALICIA MURILLO, 61, Armenia
GUILLERMO SOLIS, 43, Chad
RODRIGO CALDERON, 52, Bahrein
LUZ MARIA QUESADA, 65, Canadá
GUILLERMO GERARDO ECHANDI, 36, Islas Feroe
ANA TERESA GONZALEZ, 60, Isla Ascension
JUAN FALLAS, 40, Perú
MARITZA GUEVARA, 12, Ghana
LUIS RICARDO CHINCHILLA, 84, Vaduz
RIGOBERTO QUIROS, 32, Podgorica
TERESITA AGUERO, 92, Burkina Faso
LIGIA MARIA ESCALANTE, 91, Marianas del Nort
RAUL SABORIO, 90, Colombia
ESPERANZA AVALOS, 7, Ulán Bator
CARMEN LIDIA MATAMOROS, 38, Camboya
MARIA GLORIA MORA, 7, México
OLGA MARTA DELGADO, 1, Argentina
FLORA MIREYA RODRIGUEZ, 59, Dinamarca
MANUEL ANGEL RODRIGUEZ, 17, Praga
FLORY VALVERDE, 59, Somalia
ISABEL TORRES, 83, Líbano
ELIDA JIMENEZ, 54, Seychelles
JORGE ARMANDO JIMENEZ, 68, Islas Virgenes Americanas
VIRGINIA SAENZ, 56, Taskent
NORMA LILLIAM BONILLA, 39, Guyana
EMERITA GOMEZ, 35, Georgetown
JOSE JOAQUIN JIMENEZ, 67, Islas Marshall
ROBERTO CHAVES, 8, Manila
VIRGINIA CORELLA, 78, Riga
JULIA MARIA SOTO, 55, Corea del Norte
NURY VICTORIA CASTILLO, 24, Finlandia
IVI MAYENI VALVERDE, 79, Qatar
BITTINIA BRENES, 81, Estonia
FERNANDO BARRANTES, 10, Nauru
MARIA DEL CARMEN LEON, 15, Polonia
ALIX CASTRO, 44, Malawi
FLOR MARIA LEON, 12, Saná
RIGOBERTO ARIAS, 25, Nueva Caledonia
FLOR ARGENTINA GUEVARA, 6, Nueva Caledonia
VICTORIA GUERRERO, 70, Paramaribo
GILBERTO SANCHEZ, 42, Puerto Príncipe
RODRIGO URCUYO, 43, Sierra Leona
RAMON VENEGAS, 67, Amán
OMAR QUESADA, 90, Mauricio
RIGOBERTO PEREZ, 50, Pristina
RAUL ALFREDO ZUÑIGA, 29, Alemania
JOSE MASIS, 79, Turquía
GUILLERMO LEIVA, 35, Abuya
GLADYS VEGA, 59, Andorra la Vieja
MARIA ODILIA BERMUDEZ, 61, Montenegro
ANGEL LEON, 66, Luanda
MARTA GUISELLE MUÑOZ, 35, París
FLOR MARIA GUIDO, 56, Manila
HILDA VALVERDE, 23, Swazilandia
MARIANO AVILA, 72, Freetown
RAFAEL MONTES, 74, Ámsterdam
ADILIA MESEN, 42, Mozambique
MARTA VALVERDE, 47, Pionyang
MARIA ELIDA TENORIO, 100, Ruanda
BETINA CHINCHILLA, 15, Australia
MARIA CRISTINA RODRIGUEZ, 42, Damasco
RAMON GUILLEN, 66, Gibraltar
CARLOS ROMERO, 94, Trinidad y Tobago
FREDDY PHILLIPS, 85, Madrid
ALEXIS VILLALOBOS, 80, Montenegro
CLARISA VASQUEZ, 44, Reikiavik
MARIA CALDERON, 60, Liberia
ZULAY ROJAS, 77, Armenia
DENIS MORA, 36, Viena
MIGUEL BRENES, 34, Praia
GERARDO OMAR PORRAS, 64, Túnez
LUIS ARTURO FALLAS, 71, Gaborone
MAGDALENA MARIN, 44, Vientián
VICTOR JULIO SOLANO, 100, Seúl
CECILIA GOMEZ, 75, República Guinea
NOEMI MARIN, 90, Nom Pen
DANIEL PORRAS, 87, Kingston
DEYANIRA CALVO, 16, San Cristobal y Nevis
HECTOR JIMENEZ, 5, Wellington
LOLA PAULINA BONILLA, 42, Nueva Delhi
JOSE WALKER HERRERA, 41, República Democrática del Congo
ELSA SALAZAR, 95, Tegucigalpa
MARIA ELENA QUESADA, 83, Comores
JOSE GERARDO RODRIGUEZ, 82, Tadjikistan
EDWIN GARRO, 87, Canberra
MIRIAM MERCEDES ULATE, 65, Líbano
JULIO ALBERTO SALAZAR, 94, Isla De Navidad
MARIA MELIDA MONGE, 6, Belmopán
GUILLERMO BADILLA, 97, Dublín
APOLONIA DE LA TRINIDAD MORA, 73, Sucre
YANETH PEREZ, 16, Eritrea
ISABEL QUIROS, 25, Asunción
EVANGELINA AGUILUZ, 88, Damasco
LUZMILDA DE LOS ANGELES MONTES, 26, Sucre
RICARDO RODRIGUEZ, 19, Líbano
ELIZABETH QUIROS, 52, Papúa-Nueva Guinea
DEYANIRA MONGE, 45, Islas Cocos
GUILLERMO ARCE, 7, Kampala
RAFAEL ROJAS, 97, Vaticano
GENARO PRADO, 37, Mónaco
RAFAEL MINOR JIMENEZ, 70, Singapur
DULCELINA JIMENEZ, 83, Moroni
EMILCE BADILLA, 66, Skopie
ANA LIA VALVERDE, 67, Túnez
OCTAVIO BARBOZA, 57, Djibouti
FREDESVINDA FALLAS, 42, Colombia
WILLIAM MARTINEZ, 94, Reikiavik
MARIA DE LOS ANGELES RUIZ, 67, Niger
EDUARDO UMAÑA, 65, Mónaco
MARIA CECILIA SEGURA, 1, Wellington
FERNELIO CORRALES, 47, Guayana Francesa
ARABELA GARCIA, 48, Indonesia
JUAN RAFAEL DELGADO, 29, Yibuti
REYES MORA, 30, China
NORMAN MORA, 18, Vientián
CARLOS MATA, 76, Suecia
NURY DAMARIS FALLAS, 66, Yaundé
TERESA NAVARRO, 90, Suiza
FERNANDO ZUÑIGA, 71, México
XINIA MADRIGAL, 1, Tailandia
LEONEL AUGUSTO CASTILLO, 66, Senegal
GERARDO VARELA, 45, Mozambique
ANA CECILIA ESQUIVEL, 58, Estonia
ILMA LEPIZ, 8, Irlanda
FRANCISCO SANCHEZ, 9, Malta
AURORA AGUERO, 83, Macedonia del Norte
JESUS ALEJANDRO RAMIREZ, 22, Puerto España
HORTENSIA MORALES, 47, El Cairo
ILSE CASTILLO, 79, Camerún
RAFAEL SANCHEZ, 16, Varsovia
MARIA EUGENIA CORRALES, 83, Accra
MAVIS SALAS, 43, Buenos Aires
ANGELITA HERNANDEZ, 86, Antillas Holandesas
CARLOS LUIS MURILLO, 88, Conakri
OLGA ALVARADO, 21, Yuba
SOLEDAD ISABEL RUIZ, 18, Honduras
JUAN RAFAEL UMAÑA, 31, Taipéi
ARNOLDO PEREZ, 48, Minsk
MAGDA MARIA ARTAVIA, 55, Saná
NIDIA GONZALEZ, 68, Podgorica
MARIA ISABEL RUILOVA, 24, Macedonia del Norte
ANTONIO BEJARANO, 28, Islandia
ELICIA MORA, 38, Ruanda
ELSA JIMENEZ, 65, Isla De Navidad
MARIA NELLY CUADRA, 57, Daca
GUISELLE HERNANDEZ, 28, Montevideo
WILFRIDO VASQUEZ, 8, Angola
MAYELA HERNANDEZ, 27, Tegucigalpa
MARIA AZOFEIFA, 66, Botswana
GERARDINA CESPEDES, 69, Vaticano
LIANNETTE BADILLA, 15, Managua
ALVARO HIDALGO, 82, Amán
RAFAEL ANGEL HERNANDEZ, 59, Antártida
ROSA IRIS AGUERO, 19, Ulán Bator
ISABEL CORRALES, 71, República del Congo
ELIETH FERNANDEZ, 93, Yibuti
CECILIA GODINEZ, 26, Uzbekistán
BENISIO GODINEZ, 27, Nauru
MAYDO ANTONIO SANCHEZ, 67, Riad
JOSE LUIS CHINCHILLA, 79, Nueva Caledonia
HILDA MARIA VARGAS, 27, El Salvador
OLDEMAR RAMIREZ, 47, Antártida
FRANKLIN ROMERO, 47, Daca
SADY DEL CARMEN MORALES, 58, Conakri
ETELVINA PICADO, 48, Doha
CARLOS GERARDO ARAYA, 57, Honiara
MANUEL FALLAS, 29, Lusaka
BETTY BUSTAMANTE, 95, Yaundé
CARMEN SEQUEIRA, 39, Riga
RUTH EUNICE FALLAS, 42, Groenlandia
LUZ MARINA HIDALGO, 75, Islas Cocos
CARMEN ARCE, 53, Honiara
OVIDIA MORA, 21, Yamusukro
DAGOBERTO ARIAS, 71, Tadjikistan
JUAN HARBOTTLE, 80, Archipiélago de Svalbard
JUAN LUIS ACUÑA, 4, Malta
LUIS GILBERTO SANDOVAL, 87, Nigeria
JUAN RAMON CHAVES, 34, Bermudas
MARIA EUGENIA BERMUDEZ, 35, Mauricio
CEYLA ESCALANTE, 6, Bolivia
FLOR MARIA MONGE, 80, Azerbaiyán
SOLEDAD BRENES, 29, Madagascar
RAFAEL ANGEL QUIROS, 40, Sri Lanka
FREDDY HERNANDEZ, 42, Burundi
FRANCISCO MORA, 72, Sri Jayawardenapura Kotte
LIZANIAS ALVARADO, 21, Mogadiscio
MARIA DE LOS ANGELES BARRANTES, 83, Honduras
ELDEMAR LARA, 14, Tokio
CLARA SOLANO, 40, Andorra la Vieja
JOSE ANTONIO VARGAS, 11, Pakistán
MARIA ISABEL GODINEZ, 35, Skopie
MARCO TULIO AGUIAR, 42, Trípoli
CARMEN OVARES, 61, Nueva Zelanda
TERESITA JARA, 40, República Centroafricana
MIGUEL ANGEL FONSECA, 73, Sudo Georgia y los Islas Sandwich del Sur
SONIA MAYELA SALAZAR, 78, Guam
MANUEL HERMES ZUÑIGA, 88, Victoria
AMALIA MENA, 35, Mauritania
RODRIGO ANTONIO TREJOS, 95, Maldivas
GERARDO GRANADOS, 83, Berlín
AIDA LUZ MATA, 22, Sri Jayawardenapura Kotte
MANRIQUE CONSTENLA, 16, Etiopía
JOSE LINO LEON, 11, Sáhara Occidental
DAVID FRANCISCO SEGURA, 38, Serbia
NORMA ABARCA, 72, Luanda
ELADIO BARRANTES, 56, Praga
SUSANA MARIA GRANADOS, 94, Malasia
RAFAEL ANGEL NAVARRO, 97, Uzbekistán
FLOR MARIA MARIN, 51, Kabul
MARIA CECILIA FERNANDEZ, 16, Mongolia
RAFAEL ANGEL BARBOZA, 36, Accra
MARIA LORENA ORTIZ, 78, Sudáfrica
BALBINA CRUZ, 72, Bosnia-Herzegovina
JEANNETTE NUÑEZ, 80, Nuakchot
JUAN BAUTISTA ESCALANTE, 1, Micronesia
ANTONIO LAUREANO CARRILLO, 90, Montevideo
LUIS RODOLFO BENAVIDES, 86, Cuba
EDUARDO RODRIGUEZ, 53, Montenegro
OLIVA MENA, 36, Yemen
SANDRA MARIA LOPEZ, 67, Zambia
MARIA EUGENIA MAIRENA, 21, Helsinki
MANUEL ENRIQUE GUTIERREZ, 69, Birmania
HILDA VEGA, 98, Palau
MARIA EUGENIA ROJAS, 2, Libia
MARIO MORA, 86, Micronesia
OLGA MERCEDES VILLALOBOS, 32, Swazilandia
JOSE JOAQUIN CASTRO, 86, Montenegro
GRACE CASTRO, 45, Tuvalu
RAUL ALBERTO RODRIGUEZ, 16, Guatemala
ANA ALICIA CHINCHILLA, 71, Islamabad
MANUEL GERARDO ROJAS, 69, México
GERARDO COTO, 88, Yamusukro
MIGUEL ANGEL QUESADA, 20, La Habana
SIGIFREDO BARBOZA, 15, Harare
MARIA OFELIA MORA, 92, Archipiélago de Svalbard
FRANCISCA SANDI, 58, Reino Unido
BARTOLO ARIAS, 24, Vaticano
LILIANA CARVAJAL, 50, Vaticano
JOSE JOAQUIN DURAN, 99, Vanuatu
ULISES VEGA, 51, Kingston
JUAN CARLOS BARQUERO, 50, Ankara
ALVARO DURAN, 30, Somalia
ALEJANDRO JIMENEZ, 37, Zagreb
MARIA DEL CARMEN RETANA, 60, Bamako
ROGELIO CASTRO, 41, Perú
MARIA LUISA VARGAS, 40, Palau
ROSA ALAN, 19, Port Vila
MARIA QUIROS, 82, Saint John
MARIA MARLENE FONSECA, 99, Asmara
CARLOS LUIS JIMENEZ, 51, Benín
VERA VIRGINIA JIMENEZ, 64, Vilna
LUZ MARIA MONGE, 23, Dakar
MARIA ROSA MORA, 65, Zaire
ANA MARIA CHACON, 69, Bielorrusia
MARIA AMALIA QUIROS, 72, Guatemala
WILLIAM LEON, 33, Puerto Rico
RODOLFO MONTERO, 21, Kingston
RAFAEL ENRIQUE HIDALGO, 43, Naipyidó
GERCELI CORRALES, 90, Islas Virgenes Británicas
ALCIDES VALVERDE, 9, Nauru
CARLOS EDUARDO MORA, 18, Grecia
MIGUEL BADILLA, 40, San Marino
SAMUEL REIFER, 6, Daca
ARACELI CASTILLO, 89, Singapur
OLGA BADILLA, 72, Corea del Norte
RAUL MONTOYA, 96, República Democrática del Congo
EDGAR MONTERO, 30, Buyumbura
MARCO TULIO RODRIGUEZ, 47, Líbano
ELBA CAMACHO, 49, Tirana
CARMEN CRUZ, 79, Santo Tomé
MIGUEL ENRIQUE ZUÑIGA, 26, Granada
OLGA CARBALLO, 56, Gran Bretaña
JOSE NELSON GAMBOA, 96, Yamusukro
CARMEN VINDAS, 64, Nueva Delhi
BLANCA ROSA VARGAS, 20, Montevideo
ALVARO CANTERO, 4, España
DAYSI ESPINOZA, 13, Isla Bouvet
ELIZABETH ARGUEDAS, 95, Pristina
MARIA DE LOS ANGELES MONTES, 91, Costa de Marfil
FLOR CAMACHO, 35, Lusaka
MARIA LIGIA CORDOBA, 86, Palestina
CARLOS LUIS ROJAS, 39, Tuvalu
VICTOR MANUEL MUÑOZ, 7, Teherán
JOSE PIEDADES PEREZ, 13, Islas Virgenes Americanas
LORENA QUIROS, 100, Nueva Caledonia
GUILLERMO ENRIQUE MONTERO, 47, Timor Oriental
LILLIAM ELIZABETH MONGE, 90, Kenia
VIRGINIA MONGE, 80, San Marino
FROILAN PIEDRA, 44, Tallin
EDGARDO BARRANTES, 82, Honiara
ESTER SANCHEZ, 13, Reunión
MARCO TULIO CALVO, 36, Costa Rica
ADINA MARIA LIZANO, 31, Maseru
JOSE FERNANDO CHAVES, 13, Canadá
RODRIGO GODINEZ, 15, Tonga
SILVINO PEREZ, 24, Dusambé
NURIA EMILCE VALVERDE, 55, Mayotte
JORGE ENRIQUE HERRERA, 41, Nauru
GERARDO LIZANO, 29, Surinam
TOMAS GERARDO MENESES, 48, Burkina Faso
MARIA ISABEL RAMIREZ, 68, Sáhara Occidental
CARLOS GERARDO BRENES, 28, Brasil
CARMEN BENITEZ, 30, Ciudad del Vaticano
ELIZABETH GUZMAN, 74, Bulgaria
CARLOS GONZALEZ, 38, Ciudad del Vaticano
MAYRA CLEMENCIA SANCHEZ, 62, Kingston
RAFAEL CHAVARRIA, 30, República del Congo
CARLOS MANUEL MUÑOZ, 13, Sudáfrica
DANIEL CECILIANO, 1, Túnez
LIGIA QUEVEDO, 36, Niue
EMILCE CESPEDES, 17, Kuwait
VITALINA ROMERO, 91, Mbabane
MARIA DE LAS MERCEDES ZAMORA, 65, Isla Bouvet
MARIA TERESA CORDERO, 61, Islas Feroe
ALBA RODRIGUEZ, 26, Isla Jan Mayen
CARMEN LETICIA VEGA, 73, Argelia
RITA BADILLA, 81, Singapur
MARIA EMILCE ALVAREZ, 73, Líbano
ANA LUCIA GOMEZ, 76, Kiev
MARIA MERCEDES ARAYA, 68, Dinamarca
MARCIAL ARIAS, 88, Bridgetown
CARLOS LUIS FALLAS, 95, Comores
ROSA IRIS JIMENEZ, 4, Guadalupe
MARCO TULIO NUÑEZ, 23, Lilongüe
GRACILIANO SERRANO, 99, Argentina
GUISELLE ORTEGA, 3, Gabón
ADALBERTO MORALES, 98, Samoa Americana
JORGE ALEJANDRO RAMIREZ, 63, Federación Rusa
ELIZABETH HIDALGO, 14, Luanda
JUDITH FERNANDEZ, 68, Antananarivo
ROSALIA CARMONA, 12, Timor Oriental
JOSE LUIS ROJAS, 57, Bucarest
MARIA ELIZABETH BADILLA, 81, Tuvalu
ANA ISABEL LOBO, 80, Isla Man
JOSE ANTONIO JIMENEZ, 92, Sudo Georgia y los Islas Sandwich del Sur
MARIA ELIZABETH SANCHEZ, 54, Brasil
VIRGILIO ELIZONDO, 67, Laos
LUZ MARIA PORTUGUEZ, 52, Seúl
ISABEL MARIN, 34, Macedonia del Norte
MACEDONIO DE JESUS DIAZ, 43, Islas Turcas y Caicos
VITAL CASTRO, 41, Islas Turcas y Caicos
RAMONA TERESA AGUERO, 15, Albania
ILEANA ORTEGA, 4, Etiopía
ELIECER CASTRO, 25, Groenlandia
LUIS GUILLERMO PEREZ, 18, Bratislava
MARIA EUGENIA MARIN, 77, Roseau
INGRID AZOFEIFA, 2, Emiratos Árabes Unidos
MARIA DE LOS ANGELES CHINCHILLA, 98, Georgetown
MAYRA FELICIA SANCHEZ, 6, Bahrein
JANNET GUZMAN, 96, Zaire
BIENVENIDA MORA, 8, Honiara
ANA LORENA GONZALEZ, 36, Brunei Darussalam
MARCIAL BADILLA, 98, Gaborone
FLORA EUGENIA OVARES, 46, Londres
VERA MAYELA VINDAS, 64, Cabo Verde
MARIA DEL SOCORRO TORRES, 42, Washington D. C.
ADELA GUTIERREZ, 34, Jerusalén
RODOLFO EMILIO LOPEZ, 40, Brasilia
RAFAEL ANGEL ARROYO, 19, Kingstown
ODETTE ARIAS, 77, Gambia
SANTIAGO CHINCHILLA, 91, Nepal
MISAEL BADILLA, 71, República Centroafricana
LETICIA VARGAS, 79, Port Vila
CARLOS MANUEL SEGURA, 84, Gran Bretaña
EFRAIM SOLIS, 72, Washington D. C.
JORGE ANTONIO PEÑA, 77, Macedonia del Norte
BERTILA CUBILLO, 98, Islas Virgenes Americanas
ISIDRO CHAVES, 63, Indonesia
JULIETA CHACON, 62, Brunei Darussalam
DEYANIRA MONTERO, 27, Gran Bretaña
MARINA MUÑOZ, 79, Kinsasa
ANA CECILIA CAMBRONERO, 14, Surinam
CARLOS ENRIQUE ROBLES, 14, Argelia
JORGE CARTIN, 21, Tarawa
FERNANDO ELIECER MURILLO, 7, Windhoek
MARIO URBINA, 65, Jamaica
REYES ARTAVIA, 88, Costa Rica
RIGOBERTO MORA, 16, Zimbabwe
JOSE MIGUEL GUERRERO, 12, Somalia
CECILIA FRANCISCA CHAVARRIA, 37, Belice
CLARA CECILIA CARVAJAL, 4, Santo Tomé
JORGE VARGAS, 82, Panamá
RAFAELA ESTRELLA ROJAS, 20, Zimbabwe
LUIS ALBERTO GARCIA, 86, San Vincente y Granadinas
MIGUEL ANGEL MADRIGAL, 60, Islas Cook
JOSE ANTONIO BARBOZA, 13, Jamaica
MISAEL VARGAS, 28, Venezuela
HILDA MARIA AGUERO, 11, Yamusukro
GUIDO ANTONIO SOLIS, 85, Perú
MARIA DEL CARMEN QUESADA, 38, Italia
MAXIMILIANO VILLALTA, 24, Islas Turcas y Caicos
ALFREDO CASCANTE, 48, Nueva Zelanda
MARTA EUGENIA BENSON, 10, Panamá
ZAHYRA JEANNETTE FLORES, 7, Asunción
LOURDES MARIA JIMENEZ, 51, Senegal
OLMAN SAENZ, 70, Vaduz
LILIANA CHINCHILLA, 92, Fidji
MARIA ISABEL CASTRO, 87, Samoa
ALFONSO ESTEVANOVICH, 48, Paraguay
GERARDO VALVERDE, 49, Guinea Ecuatorial
MARIA TERESA VARGAS, 18, Yibuti
EIDA MARIA JIMENEZ, 13, Bélgica
CARLOS LUIS PRADO, 41, Wallis y Futuna
RODRIGO MONTERO, 18, Islas Cook
VICTOR SALAS, 29, Guam
AMALIA MARIA PERALTA, 77, Comores
RAMON LOAIZA, 15, Bahrein
LETICIA MORA, 2, Malasia
CARMEN MARIA MADRIZ, 94, Isla De Navidad
JOSE ANTONIO GOMEZ, 64, Belice
ROSA MARIA CASTRO, 54, Quito
MARIA DE LOS ANGELES RODRIGUEZ, 78, Sofía
SONIA SELVA QUESADA, 22, Abu Dabi
MARIA CECILIA MARIN, 89, Islas Virgenes Británicas
RODRIGO CAMPOS, 91, San Pedro y Miquelón
HERLINDA MORA, 9, Guyana
LUIS GERARDO CASTRO, 53, Etiopía
AMALIA JIMENEZ, 72, España
MARIA TERESA MUÑOZ, 11, Copenhague
ALFREDO CHAVES, 72, Argentina
OLMAN VINDAS, 49, Accra
ALCIDES MORA, 100, Namibia
MARCOS ALBERTO VEGA, 37, Nueva Caledonia
MARIA EUGENIA ROJAS, 93, Somalia
JOHNNY ALBERTO SEGURA, 84, Países Bajos
ALVARO PACHECO, 59, Saint John
TERESA TREJOS, 44, Túnez
JOSE LUIS CRUZ, 20, Malasia
JORGE BONILLA, 63, Mascate
ORLANDO DIAZ, 55, Berlín
RAFAEL ANGEL JIMENEZ, 66, Indonesia
VIELA MARIA GARCIA, 46, Niamey
CLARA LUZ PICADO, 25, Yakarta
FRANCISCO ARIAS, 47, Filipinas
CARMEN ROJAS, 31, Corea del Norte
ISRAEL PADILLA, 3, Gabón
FRANCISCO ALEJANDRO MENA, 75, Tiflis
FRANKLIN QUIROS, 38, Canberra
HERNAN JIMENEZ, 53, Moroni
EVANGELINA CASCANTE, 25, Guinea Ecuatorial
ELIZABETH MORA, 19, Turquía
ZAIDA ESQUIVEL, 65, Uganda
ALICIA GARCIA, 8, Ankara
ROSARITO HIDALGO, 40, Wallis y Futuna
ETELVINA SEQUEIRA, 52, Bahrein
MARIA ISABEL JIMENEZ, 11, Gibraltar
OFELIA JIMENEZ, 34, Guernsey
JORGE ARTURO VEGA, 99, Apia
MARIA ROSARIO VIDECHE, 38, Isla Jan Mayen
BLANCA ROSA CHINCHILLA, 58, Argentina
BERNARDITA NAJERA, 46, Myanmar
MARIA DEL CARMEN RAMIREZ, 27, Asunción
ODILIE NAVARRO, 40, Santo Domingo
LETICIA HERRERA, 63, Sarajevo
VIRGITA UREÑA, 29, Ankara
DORIS GARCIA, 44, Naipyidó
HILMA MORA, 84, Beirut
ANA ISABEL ALVARADO, 99, Zagreb
VICTOR MANUEL CASTRO, 99, San José
ANTONIO CARLOS BRENES, 23, Tegucigalpa
LUIS ENRIQUE MATAMOROS, 97, Islas Turcas y Caicos
AMALIA SOLANO, 46, Mongolia
ADORACION ACUÑA, 32, Reunión
IRIS SALAZAR, 100, Washington D. C.
LUZ MARINA CASTRO, 46, Arabia Saudita
RITA MARIA GARRO, 27, Mascate
WILLIAM RAMIREZ, 28, Kazajstán
ENRIQUE ARROYO, 23, Malawi
ULISES QUIROS, 88, Bután
MAYRA LEIVA, 46, Sudán
LIGIA MERCEDES MENDEZ, 58, Hong Kong
JORGE EDUARDO HERNANDEZ, 43, Nigeria
ALBA LUZ HERRERA, 23, Tokelau
MAYRA IVETTE TENORIO, 79, Gaborone
EDGAR GARCIA, 75, Austria
HAYDEE DELGADO, 85, Uzbekistán
VIRGINIA EDITH PRADO, 77, Eslovenia
JUAN RAFAEL DURAN, 69, Yaundé
SARA MINTZ, 75, Victoria
LUIS ANTONIO ESQUIVEL, 62, Suva
URIEL BARRANTES, 85, Georgia
ALBA ROSA CARVAJAL, 22, Angola
ELIZABETH CAMPOS, 54, Islas Malvinas
LUIS GERARDO JIMENEZ, 100, Grecia
GISELLE ROSSI, 42, Sudo Georgia y los Islas Sandwich del Sur
MANUEL MORA, 46, Bogotá
MARIA EUGENIA BURGOS, 20, San Salvador
SOCORRO MONTERO, 45, Italia
XINIA LOPEZ, 44, Isla Jan Mayen
EYLLEN NURY RIVERA, 25, Myanmar
DIDIER FALLAS, 95, Reunión
MARIA ELENA ALVARADO, 42, Funafuti
SONIA LIDIETTE BRENES, 6, Qatar
GUILLERMO PANA, 76, Nom Pen
MARIO ALBERTO CARRANZA, 75, Sri Lanka
MELBA SOLIS, 60, Canadá
MARCO AURELIO SOLIS, 45, Marianas del Nort
OMAR ENRIQUE MATA, 84, Hanói
CARLOS MARIA PADILLA, 66, Qatar
RAFAELA EMERITA GUZMAN, 41, Estonia
ALCIDES MORA, 81, Bermudas
LEVI GODINEZ, 42, Eslovenia
ORLANDO JOHANNING, 69, Camboya
MARIA ROSA AGUILAR, 79, Isla Christmas
CARLOS CAMACHO, 70, Aruba
MAXIMILIANO IRIAS, 92, Astaná
MARIA ROSA RIVERA, 69, Isla De Navidad
MARIA EUGENIA GARCIA, 44, Sudo Georgia y los Islas Sandwich del Sur
MANUEL ENRIQUE PORRAS, 69, Paramaribo
RICARDO EMILIO ARGUELLO, 23, Dusambé
ARNOLDO ALPIZAR, 59, Gaborone
JORGE ELIECER VILLA, 81, Copenhague
SONIA RIVERA, 20, Bamako
CLARA TERESITA MENDEZ, 65, Sri Lanka
MARIA EUGENIA SOLANO, 15, Cabo Verde
JUAN GERARDO HERNANDEZ, 13, Portugal
CECILIA VIQUEZ, 76, Serbia
CLARA ISABEL BAUDRIT, 21, Gabón
ANA ISABEL JIMENEZ, 24, Eritrea
ARACELLY JIMENEZ, 25, Swazilandia
CARLOS FRANCISCO VARGAS, 69, Singapur
FRANCISCO HERRERA, 68, Noruega
HORMIDAS CALDERON, 68, Abuya
ETELGIVE SANDI, 20, Zimbabwe
ANGELA VARGAS, 15, Sáhara Occidental
ALCIDES ESPINOZA, 10, Islas Salomón
ODILIE GARCIA, 7, Port Vila
ANA RUTH SEGURA, 94, Bamako
GLADYS CORDERO, 79, Bandar Seri Begawan
ELVIRA PRADO, 34, Doha
ROGER ARIEL MARTINEZ, 29, Hanói
EMILCE ZAMORA, 7, Malawi
ANA ISABEL BOZA, 20, Eslovaquia
OLMAN BONILLA, 28, Bisáu
LUIS ALFONSO AGUILAR, 14, Isla Bouvet
CECILIA BERMUDEZ, 99, Tíbet
HAYDEE MENA, 1, Santa Lucía
RUTH MARIA ARGUELLO, 88, Luanda
JAVIER MUÑOZ, 10, Niamey
FLORA ALFARO, 42, Jartum
EVANGELISTA ALPIZAR, 70, Castries
JOSE GABRIEL CORRALES, 97, Wallis y Futuna
MARIA DE LOS ANGELES HAUG, 15, Accra
MARTA EUGENIA SOLERA, 1, Filipinas
DINORAH RAMIREZ, 49, Gabón
JUAN MONTOYA, 63, Canberra
RAUL CAMACHO, 26, Melekeok
NORMA ROJAS, 66, Harare
MARIA EUGENIA VARGAS, 5, Tuvalu
RODRIGO SANDOVAL, 45, Israel
ALEXIS CHINCHILLA, 40, Honiara
ANA VIRGINIA GRANADOS, 89, Yamusukro
MANUEL VARGAS, 72, Macao
ROMILIO HERNANDEZ, 13, Tuvalu
CARMEN MARIA MORA, 57, Bangui
LUZ MARIA ARTAVIA, 2, Helsinki
YETTY MUÑOZ, 24, Uruguay
RAMON RODRIGUEZ, 34, Rabat
NORA MARIA GUILLEN, 60, Martinica
ALVARO ALVAREZ, 19, Taiwan
VIRGINELIA VALVERDE, 25, Berlín
JOHNNY DURAN, 64, Guyana
LUCIA DE LOS ANGELES CACERES, 1, Washington D. C.
LUZ MARINA OROZCO, 9, Beirut
GERARDO ADOLFO QUESADA, 64, Bielorrusia
JOSE ANTONIO CORRALES, 81, Yemen
ODILIE MORA, 77, Yuba
LUZ MARINA GARRO, 98, Tadjikistan
MARIA ISABEL IBARRA, 34, Rumanía
ROBERTO RIVERA, 29, Ucrania
CARLOS VALVERDE, 56, Isla Christmas
PABLO ALPIZAR, 53, Antananarivo
ROGELIO JOAQUIN NAVARRO, 33, La Habana
MARIETA VALVERDE, 74, Nom Pen
BERTA MARIA HERRERA, 82, Estados Unidos
JOSE MORALES, 20, Honduras
ESTRELLA GOMEZ, 60, Porto-Novo
FLORA MONGE, 3, Israel
ARMANDO BORRAS, 70, Yaundé
RIGOBERTO QUIROS, 80, Yibuti
ROSA EMILIA CHAVES, 35, Sofía
SONIA DINA SOTO, 45, Turquía
JOSE GERARDO VALVERDE, 55, Italia
GERMAN JIMENEZ, 95, Vilna
HILDA HERNANDEZ, 51, Nigeria
JORGE AVENDAÑO, 40, Damasco
JUAN EVANGELISTA BLANCO, 26, Castries
MARIA LILLIANA CALDERON, 6, Guatemala
ARCADIO MARIN, 76, Libreville
MARCOS JOSE FLORES, 20, Costa Rica
ADELIA MENDEZ, 43, Kampala
OLGA MARTA RIVERA, 65, Islas Cocos
MARIA DEL CARMEN GONZALEZ, 38, Corea del Norte
DAISY BLANCO, 65, Alemania
ALFREDO MATA, 96, Brasilia
MARIA LUZ BARQUERO, 79, Pekín
AURELIO CHAVARRIA, 36, Ecuador
PATRICIA VIQUEZ, 25, Papúa-Nueva Guinea
BERNARDO MENDEZ, 17, Guam
MANUEL EDUARDO JIMENEZ, 92, Jerusalén Este
CARMEN QUIROS, 28, Sudo Georgia y los Islas Sandwich del Sur
JORGE FALLAS, 83, Praia
HAYDEE AGUILAR, 33, Bakú
VICTOR MANUEL QUIROS, 85, Nueva Delhi
VICTOR EDUARDO VALVERDE, 66, Montevideo
GERMAN GONZALEZ, 41, Skopie
JULIETA CARDENAS, 87, Costa de Marfil
VIRGINIA MARIA SELL, 89, Afganistán
TELMA GAMBOA, 49, Roma
LILLIAM ESCALANTE, 33, Madagascar
ARACELLY VARGAS, 96, Países Bajos
TERESA BRENES, 7, Melekeok
JAIME GONZALEZ, 100, Chisináu
RAFAEL MORA, 59, Manama
LUZ MARINA JIMENEZ, 31, Islamabad
ANA GUISELLE CHINCHILLA, 91, Bermudas
MANUEL ANTONIO VINDAS, 87, Mascate
ANGELICA TENCIO, 95, Naipyidó
ELADIO CAMPOS, 24, Sudán
MARIO LIZANO, 88, Isla De Navidad
REINALDO PEREZ, 5, Malta
EDITH ALVARADO, 46, Niue
FRANCISCO ANTONIO VALVERDE, 14, Haiti
MARIA ELENA FALLAS, 37, Zaire
JOHEL FERNANDEZ, 4, Yemen
MARIA DE LOS ANGELES BARRANTES, 88, Granada
MARIA CECILIA BARRANTES, 59, Martinica
ZORAIDA MATA, 5, Santa Elena
BRAULIO QUESADA, 16, Yaren
OBDULIA ARIAS, 45, Montserrat
MARCO TULIO FONSECA, 6, Malawi
EDELMA ALVARADO, 54, Gibraltar
FLOR MARIA MONTERO, 14, Asmara
JORGE ENRIQUE JIMENEZ, 11, Libia
RUTH RIVERA, 31, Wallis y Futuna
CARMEN NORMA VINDAS, 45, Yemen
JOSE MANUEL UMAÑA, 95, Mayotte
BRIGIDA VALVERDE, 36, Dodoma
ANA CECILIA BERMUDEZ, 25, Nasáu
CARMEN FERNANDEZ, 88, Estocolmo
HUMBERTO ROJAS, 46, Maldivas
MARTA ISABEL GAMBOA, 53, Camboya
MIREYA ORTEGA, 82, San Marino
ALEXIS BUSTAMANTE, 1, Cuba
VICTOR EUGENIO LACAYO, 76, Monrovia
MARIA DEL CARMEN CHINCHILLA, 90, Banjul
MANUEL GERARDO ROJAS, 43, Nepal
MARIA FERNANDEZ, 96, Macedonia del Norte
EIDA ESPELETA, 59, Andorra
TOBIAS BLANCO, 58, Vaduz
CARMEN CUBILLO, 54, Sarajevo
ENRIQUE HERNANDEZ, 55, Rabat
ARNOLDO ZUÑIGA, 65, Comores
RICARDO MATAMOROS, 62, Irlanda
JUAN GODINEZ, 75, Monrovia
HAYDEE MARIN, 72, Islas Cocos
ALFONSO MURILLO, 80, Islas Cocos
MARIA ELENA LEON, 53, Líbano
MARIA DE LOS ANGELES VINDAS, 66, Reino Unido
GERMAN MADRIGAL, 33, Bogotá
DORA MARIA BEJARANO, 5, Praia
ARTURO RAMIREZ, 13, Libia
ALVARO MENA, 74, Polinesia Francesa
OLGA MESEGUER, 47, Naipyidó
MARTA EUGENIA MORA, 46, Mauricio
LEONEL MORUA, 93, Beirut
HUGO CUBILLO, 92, Skopie
FRANKLIN TORRES, 56, República Guinea
FRANCISCO OVIEDO, 75, Roma
EVELIO SALGUERO, 26, Finlandia
ESTRELLA VARGAS, 93, Vientián
LUIS ROBERTO PANIAGUA, 87, Saná
FLORA MASIS, 94, España
MELVA SILES, 21, Islas Marshall
ETELGIVE SOLIS, 29, Bulgaria
JORGE AUGUSTO BRIZUELA, 53, Moroni
ANA MARIA SALAZAR, 27, Andorra la Vieja
ESAU ROJAS, 62, Nauru
MARINA ZAMORA, 31, Asmara
AIDA BALKE, 21, Vaticano
MARIA ROSARIO RODRIGUEZ, 48, Líbano
MAYRA MARTA RAMIREZ, 84, Islas Turcas y Caicos
MARIA DEL CARMEN UMAÑA, 52, Astaná
MARIA ELENA VEGA, 53, Gabón
EDUVINA ARIAS, 84, Islas Salomón
FLORA MARIA LEITON, 86, Niger
AMALIA MENA, 59, Australia
MARIA LOURDES SEGOVIA, 81, Mascate
ZAMARA ROJAS, 37, Singapur
OLDEMAR MONGE, 6, Riga
NEFTALI CASTRO, 9, Panamá
JULIA CARMEN FALLAS, 34, Reikiavik
CLAUDIA ZUÑIGA, 37, Guinea Bissau
GISELLE CHAVARRIA, 36, Tadjikistan
XINIA ABARCA, 3, República Checa
JORGE LEON, 13, Helsinki
FILADELFO RUGAMA, 81, Irán
FERNANDO SOLERA, 70, Santa Elena
RICARDO GUERRERO, 70, Funafuti
LEILA VEGA, 9, Canberra
DIGNA VELASQUEZ, 98, República del Congo
MARIA LUISA GAMBOA, 4, Panamá
EMERITA PORRAS, 23, Costa de Marfil
HILDA MARIA DONATO, 90, Bielorrusia
OLMAN QUESADA, 86, Quito
ORLANDO RODRIGUEZ, 38, Islandia
GRACIA MORA, 75, Taipéi
CARLOTA CHANTO, 56, Bélgica
MIRIAM ELIZONDO, 79, Taskent
TERESITA MORA, 91, Bogotá
FLORA FALLAS, 60, Hong Kong
MAGDALENA ABARCA, 35, Palau
LUIS FERNANDO OSPINO, 86, Turquía
LIGIA MARIA CORDERO, 45, Macedonia del Norte
TULIO UREÑA, 85, México
BERNARD EDUARDO RODRIGUEZ, 32, Samoa
DINORAH CARMONA, 8, Pakistán
MANUEL CALVO, 19, Jerusalén Este
MARIA DE LOS ANGELES FONSECA, 99, Polonia
EMMA ROJAS, 59, Katmandú
CRISTINA MASIS, 1, Katmandú
GILDA CASTILLO, 62, Nasáu
FERNANDO AVILA, 70, Dinamarca
ETELVIDA MATA, 43, Aruba
ARACELLY ELIZONDO, 67, Dakar
MARIA MESEN, 49, Nigeria
MARIA CECILIA LEITON, 85, México
TERESA AGUERO, 10, Costa de Marfil
FRANCISCO PEREZ, 19, Victoria
MANUEL CHINCHILLA, 21, Angola
GERARDO QUIROS, 16, Camerún
MARIA EUGENIA CHAVARRIA, 14, Adís Abeba
ANA MARIA QUIROS, 74, Helsinki
LIGIA UMAÑA, 99, Bridgetown
MARIO CAMPOS, 79, Nueva Delhi
NORMAN JOSE HERNANDEZ, 31, Daca
FRANCISCO ALFREDO EDGERTON, 37, Vietnam
JOSE CALDERON, 86, Bolivia
JUAN VARGAS, 71, República Checa
MARIA DE LOS ANGELES VIQUEZ, 32, El Cairo
ISRAEL AGUERO, 74, El Cairo
CECILIA BRENES, 60, Mayotte
MARIA DEL CARMEN CALDERON, 98, Singapur
ALICIA MADRIGAL, 15, Botswana
HAYDEE HERNANDEZ, 59, Kirguistán
MARCELINO MORA, 97, Bakú
MIRIAM MONTERO, 88, Libreville
JUAN RAFAEL ALVARADO, 66, Liubliana
LUZ MARINA VALVERDE, 81, Asunción
UBALDO JESUS GARRO, 7, Corea del Sur
GILBERT FRANCISCO ZAMORA, 54, Praga
MIGUEL ANGEL GUTIERREZ, 75, Belice
MARIA ROSA QUIROS, 74, Rusia
MARIA DEL SOCORRO BONILLA, 88, Damasco
FERNANDO ROJAS, 14, Argentina
MARTA ELENA VARGAS, 41, Cuba
SANTIAGO LARGAESPADA, 16, Belgrado
MIRIAM CECILIA ACEDO, 7, Malasia
JEANNETTE DIAZ, 99, Uganda
GERARDO RODRIGO AGUIRRE, 54, Ottawa
ALBERTINA RODRIGUEZ, 62, Tokelau
HORTENSIA JIMENEZ, 83, Roseau
JUAN GILBERT MORA, 19, Mónaco
ANA CECILIA MENA, 63, Dusambé
CARLOS LUIS GOMEZ, 79, Lisboa
PAULINO CASTILLO, 100, Comores
HERNAN LIBRADO FALLAS, 16, Jersey
ALVARO ABARCA, 29, Francia
ANA CECILIA ARCE, 1, Guam
SIGIFREDO JIMENEZ, 81, Jerusalén Este
AMADO MORA, 80, Bangladesh
FLOR DE MARIA CERDAS, 67, Jartum
CARMEN MARIA PERALTA, 50, Dodoma
MARTA EUGENIA SOTELA, 88, Burkina Faso
MARIA DEL ROSARIO VARELA, 61, Niger
GERARDO RAMON MADRIGAL, 55, Ottawa
LIGIA PALMA, 69, Sierra Leona
ROSA MARIA JIMENEZ, 21, Bruselas
ELDERICO RIOS, 96, Isla Pitcairn
MARIA EUGENIA ESPINACH, 7, Dodoma
MARIA ESTER PORRAS, 99, Burundi
DIGNA BONILLA, 82, Surinam
MARCOS PICADO, 53, Bogotá
GRETTEL KOPPER, 54, Wallis y Futuna
EMERICE GAMBOA, 16, Paramaribo
MARIA LIDIA MORA, 21, Funafuti
ALFREDO VARGAS, 94, Eslovaquia
MARIA JULIA PACHECO, 90, Palestina
ALICE GEORGINA MORA, 80, Libia
EDGAR FRANCISCO SOTO, 70, Grecia
ZORAIDA HIDALGO, 60, Botswana
ARTURO JULIAN VOLIO, 35, Kirguistán
MARTA FONSECA, 62, Archipiélago de Svalbard
NORMA CHAVARRIA, 82, Hong Kong
CARMEN MENA, 17, Perú
HUGO ANTONIO ARGUEDAS, 8, San Marino
MARIA DE LOS ANGELES NUÑEZ, 32, Kingstown
CARLOS LUIS FONSECA, 16, Uzbekistán
FLORA RAMIREZ, 34, Malabo
CORNELIO ALVARADO, 92, San Marino
MARJORIE SOTO, 33, Francia
BERNAL GARCIA, 56, Tokelau
EGIDIA VARGAS, 70, Puerto Rico
ALVARO LUIS GONZALEZ, 78, Tegucigalpa
LUZ MARINA FLORES, 60, Wellington
EMERITA JIMENEZ, 83, Canberra
MARIA EUGENIA SANCHEZ, 11, Andorra la Vieja
LUIS GUILLERMO JIMENEZ, 81, Kirguistán
MARIA CELINA DELGADO, 76, Ruanda
LUISA MARIA TREJOS, 61, Belmopán
EMA ISABEL CALDERON, 37, Monrovia
JOSE HIDALGO, 41, Conakri
JUAN RAFAEL FONSECA, 35, Tailandia
ELIAS MURILLO, 23, Trípoli
LIONEL SOLANO, 16, Antigua y Barbuda
MARIA NELLA JOHANNING, 20, Yibuti
JOSE RUBEN BONILLA, 56, Camboya
IRIS JEANNETTE MEZA, 96, Niue
MARVIN UREÑA, 81, Nicaragua
TERESITA MARIN, 22, Ámsterdam
HERMINIA JIMENEZ, 38, Australia
ALEJANDRO SEGURA, 62, Lesotho
HERMINIA MADRIGAL, 4, Vaticano
GUILLERMO ALPIZAR, 56, Honiara
LUZ MARIA GUTIERREZ, 99, Asunción
RAMONA RODRIGUEZ, 21, Eritrea
CARMEN MARIA SOLIS, 19, Guernsey
ZORAIDA PERAZA, 67, Austria
MARIA DEL SOCORRO SOLIS, 72, Palestina
CARLOS EDUARDO RODRIGUEZ, 39, Estados Federados de Micronesia
MIGUEL BUSTAMANTE, 54, Iraq
CARLOS GERARDO CALDERON, 4, Timor Oriental
CARMEN MARIA SABORIO, 37, Burundi
NAIDA VILLALOBOS, 33, Dakar
JOSE ANGEL CASTRO, 7, Andorra
MIGUEL RODRIGO AGUERO, 45, Rusia
MARJORIE RODRIGUEZ, 50, Mónaco
HERNAN MORA, 34, Granada
MARIA JULIA GONZALEZ, 68, Armenia
EMERITA PEREZ, 66, El Cairo
ELPIDIO ALCIDES MARIN, 35, Islas Feroe
LUIS ALBERTO MESEN, 3, Hungría
ANA ALICIA UREÑA, 28, Polinesia Francesa
FLORENCIO MORA, 11, Bisáu
ZAIDA CHACON, 60, San Salvador
FLOR MARIA QUESADA, 68, Jersey
GLADYS HERNANDEZ, 60, Arabia Saudita
MARIA LOURDES LEON, 58, Irlanda
RAFAEL ANGEL CHACON, 27, Vaticano
TIRZA BUSTAMANTE, 58, Copenhague
JORGE ARTURO BARBOZA, 65, Banjul
GERMAN RODRIGUEZ, 64, República Checa
ENRIQUE FALLAS, 5, Kabul
HERNAN MADRIGAL, 10, Niger
OLGA VINDAS, 41, Victoria
FLOR DE MARIA CHACON, 93, Monrovia
ALICIA CASCO, 31, Omán
LIGIA MARIA LIZANO, 19, Indonesia
MARIA ANGELA CORDERO, 59, Venezuela
VIRGINIA ARIAS, 79, Luxemburgo
MARTA EUGENIA NUÑEZ, 94, Niamey
LEONEL MORENO, 60, Bamako
MARIA EUGENIA MOLINA, 55, Vientián
RAFAEL HECTOR CECILIANO, 73, Manila
CARLOS LUIS MORA, 73, México
OLGA MARTA VINDAS, 96, Togo
RICARDO RIVERA, 84, Malabo
GUILLERMO AGUILAR, 46, Malasia
MANUEL ROJAS, 70, Jerusalén
JOSE GUILLERMO FLORES, 37, Namibia
ELVIRA MORA, 24, Tailandia
ADELA HERRERA, 91, Timor Oriental
LEILA MARIA AZOFEIFA, 39, Brunei Darussalam
PORFIRIO ARIAS, 66, Malí
JESUS LORENZO NARANJO, 54, Sucre
ELOY AGUILAR, 40, Funafuti
MISAEL LEIVA, 15, Mascate
GRACE LLOVIRA MENDEZ, 79, Corea del Sur
FERNANDO ENRIQUE GARITA, 44, Bisáu
MARIA CECILIA UMAÑA, 33, Dodoma
LEILA SOLIS, 73, Islas Virgenes Americanas
ENRIQUE OREAMUNO, 67, Niamey
EDUARDO FIGUEROA, 5, Groenlandia
RODRIGO SOLANO, 56, Kiev
JOSE MARIA MORA, 66, Birmania
ELSA SALAZAR, 91, Teherán
FLOR MARIA HIDALGO, 40, Wellington
JULIO CERDAS, 31, Benín
MARIA LINA QUIROS, 14, Luanda
EIDA UMAÑA, 79, Yakarta
MARIA CRISTINA MONGE, 79, Managua
OSCAR ALFARO, 41, Pristina
CARMEN NINFA BADILLA, 82, Dili
VICTOR SAENZ, 33, Saint George
ALBERTO MARIO VARGAS, 9, Estonia
ALVARO SOTO, 74, Palau
LEONOR EUGENIA SEGOVIA, 10, Copenhague
CONCEPCION MORA, 47, Tiflis
GERARDO BLANCO, 34, Birmania
KATTIA MARIA TORRES, 25, Niue
MARIA REGINA GARRO, 8, Islas Virgenes Británicas
ROSA MARIA PEÑARANDA, 93, Mbabane
JOSE ANGEL RODRIGUEZ, 78, Austria
ANA ISABEL CAMPOS, 57, Bélgica
EDUARDO ENRIQUE MASIS, 97, Benín
JOSE FRANCISCO ARAYA, 11, Costa de Marfil
MARIA EUGENIA BRIZUELA, 41, Hong Kong
GLENDA MARROQUIN, 56, Bakú
ISABEL AZOFEIFA, 38, Montenegro
MARIA LUISA ESQUIVEL, 9, Venezuela
ALVARO LAPEIRA, 62, Barbados
GUILLERMO DIAZ, 20, Antillas Holandesas
MARIA ESTER GODINEZ, 70, Maseru
GERARDO MARIN, 60, Brasil
ARGENTINA RIVERA, 46, Sofía
LIGIA ISABEL SAENZ, 24, Burundi
MIRIAM LOPEZ, 24, Hanói
DELRETA DENERIAH WRIGTH, 12, Accra
NORMA MURILLO, 70, Mascate
CECILIA VILLAPLANA, 70, Apia
ALVARO CHAVES, 35, Liberia
VICTORIA AGUERO, 66, Kinsasa
RIGOBERTO TOSSO, 94, Roma
JOSE FRANCISCO JINESTA, 74, Bamako
VILMA MARIA BARQUERO, 10, Santa Lucía
ARACELLY BERMUDEZ, 15, Port Vila
FERNANDO VILLALOBOS, 51, Tokelau
AZIHADEE CASTRO, 54, Estocolmo
JOSE MEZA, 97, Panamá
CECILIA LOPEZ, 36, Gabón
MARIA EUGENIA MENA, 44, Isla Bouvet
YADIRA CHACON, 74, Burkina Faso
FREDESVINDA ETELGIVE CASTRO, 17, Bagdad
RAFAEL ANGEL MURILLO, 56, Nigeria
WILLIAM MADRIGAL, 31, Washington D. C.
RICARDO ANTONIO ARTAVIA, 27, Jerusalén
GIOVANNY CAVALLINI, 85, Dakar
PEDRO ANTONIO NAVARRO, 58, Antananarivo
SONIA MAYELA PASTOR, 35, Laos
ELIETTE RAMIREZ, 13, Teherán
MARIA ROSA MARIN, 51, Seychelles
MARIA BIENVENIDA CHINCHILLA, 38, Suva
CARLOS DURAN, 74, Honduras
MARIA CECILIA CORDOBA, 20, Vaduz
MARIA CRISTINA MACHADO, 36, Nairobi
SATURNINO UMAÑA, 77, Beirut
ROSARIO GLICERINI, 10, Seychelles
MANUEL SARMIENTO, 51, Swazilandia
ALBA ROJAS, 49, San Vincente y Granadinas
OTILIA PORRAS, 55, Djibouti
LE ROY IGLESIAS, 24, Kuwait City
JULITA LEIVA, 24, Mbabane
MERCEDES CORDERO, 97, Guernsey
BLANCA ROSA CASTRO, 53, Jamaica
MARIA IVETTE SEGURA, 46, Guatemala
RAFAEL OVIDIO CARVAJAL, 66, Londres
MARIA TERESA ARAYA, 93, Islas Cocos
ANA ISABEL MONGE, 28, Macedonia del Norte
ISAIAS BONILLA, 65, Jerusalén Este
EMILIA UMAÑA, 56, Afganistán
ALEXIS FERNANDEZ, 72, Taiwan
ANGIOLETTE ALVARADO, 88, Tokio
MERCEDES ZAPATA, 28, Pretoria
RICARDO ALVARADO, 84, Jerusalén
CONSUELO HERNANDEZ, 37, Adís Abeba
MARJORIE MORA, 17, San José
AMADA ARIAS, 59, Saná
HECTOR LEON, 87, Tadjikistan
MARIA ISABEL QUIROS, 75, Emiratos Árabes Unidos
MARIA TERESA SANCHEZ, 61, Zaire
FRANCISCO ISMAEL RAMIREZ, 72, Isla De Navidad
ORALIA CASCANTE, 49, Luanda
CARLOS MANUEL NUÑEZ, 41, Conakri
OFELIA MIREYA BONILLA, 1, Emiratos Árabes Unidos
GLADYS PRADO, 68, Brasil
RODRIGO ALBERTO CORRALES, 21, Isla Man
ESTRELLA CHACON, 20, Asunción
DANIEL FERNANDEZ, 38, Suiza
MARTA CASTILLO, 35, Canadá
MARIA DE LOS ANGELES MENDEZ, 69, Doha
LOUELLA CUNNINGHAM, 5, Polonia
MIGUEL ANGEL VEGA, 56, Andorra
LIDIETH SOTO, 62, República Guinea
MARIA FLOR JIMENEZ, 60, Uruguay
ADOLFO HERNANDEZ, 51, Accra
ALAMAR DIAZ, 3, Reikiavik
FLORA ABARCA, 61, Guinea Ecuatorial
ANA VIRGINIA ZELEDON, 67, Bermudas
ROSA AURELIA MONGE, 1, Ghana
ALVARO DURAN, 78, Malí
FARID FRANCISCO BEIRUTE, 97, Senegal
EULALIA BUSTAMANTE, 37, Sri Lanka
ALFONSO EMILIO MONGE, 39, Islas Cocos
GUILLERMINA VENEGAS, 46, Portugal
ELIA BONILLA, 37, Manama
VIRGINIA CORDERO, 42, Nicosia
EDGAR CALVO, 76, Santa Lucía
VICTOR MANUEL MARIN, 46, Islas Virgenes Americanas
ZULAY SANCHEZ, 62, Port Vila
ANSELMO MONGE, 50, Luxemburgo
MARIA DEL CARMEN HERRERA, 19, Guadalupe
ODILIE MURCIA, 87, Iraq
EDUARDO VARGAS, 62, Papúa-Nueva Guinea
EVARISTO ABARCA, 19, Canadá
LOURDES RAMIREZ, 54, Palestina
CARLOS LUIS MONGE, 26, Kabul
RAFAEL VICENTE FONSECA, 57, Kinsasa
IDABET AGUERO, 56, Sierra Leona
JORGE LUIS MORA, 27, Islas Turcas y Caicos
FERNANDO BARBOZA, 30, Bolivia
ALVARO LOPEZ, 21, Canberra
AIZA MELENDEZ, 79, Kiev
LAURA VARGAS, 61, Maputo
BLANCA EMILCE RUBI, 86, Papúa-Nueva Guinea
ISABEL DELGADO, 96, Trípoli
ELSA CHAVES, 65, Bután
ALICIA UREÑA, 50, Nueva Delhi
ALEJANDRA MARIA RODRIGUEZ, 63, Ciudad del Vaticano
MARIO ALBERTO MARIN, 3, Islas Cocos
MAYRA CAMBRONERO, 94, Harare
DAISY UMAÑA, 21, Singapur
ELSA MARIA GONZALEZ, 86, Albania
ADELA CHANTO, 37, Jartum
ISIDORA FERNANDEZ, 43, Tuvalu
OTILIO ARMANDO GONZALEZ, 79, Eritrea
RAFAEL MORA, 34, Bamako
JORGE MUÑOZ, 77, Luxemburgo
ELVIRA CHINCHILLA, 11, Biskek
MARGARITA ZAMORA, 32, Ankara
LIGIA VIRGINIA BRENES, 98, Tanzania
JEANNETTE BADILLA, 37, Biskek
EDUARDO ENRIQUE COTO, 53, Fidji
EMILCE GONZALEZ, 10, Abu Dabi
HERNANDINA CABRERA, 42, Zaire
LUZ MARINA MARIN, 40, Freetown
GERARDO GONZALEZ, 37, Chipre
FLOR FALLAS, 45, Cabo Verde
JUAN RAFAEL SEQUEIRA, 23, Islas Feroe
CARLOS ARTURO MASIS, 5, Georgetown
MARSELLA MONTOYA, 92, Skopie
CARIDAD UMAÑA, 45, Serbia
FILIBERTO JIMENEZ, 24, Montevideo
FRANCISCO VARELA, 61, Paraguay
VICTOR MANUEL DURAN, 59, Islas de Heard y McDonald
ADILIA LOPEZ, 84, Asmara
LIDIETTE VARGAS, 54, Biskek
FERNANDO VILLALOBOS, 71, Comores
JORGE ARTURO CALVO, 65, Corea del Norte
EULALIA GERARDINA SANCHEZ, 76, Niger
CELINA FERNANDEZ, 65, San Tomé y Príncipe
HERNAN ANTONIO MELENDEZ, 22, Djibouti
BERNARDITA GARCIA, 84, Castries
ZENEIDA VARGAS, 68, Vaduz
EUTILIO VALVERDE, 15, Malí
SOLEDAD UREÑA, 64, Tarawa
OSCAR CHANTO, 32, Nigeria
MARIA DE LOS ANGELES TORRES, 43, Benín
ISAIAS CALVO, 9, Varsovia
EDGAR MORA, 48, Kingston
DORA SOLANO, 4, Reunión
ANA ISABEL GONZALEZ, 38, República Dominicana
MARIA GUZMAN, 55, Lisboa
JUAN SERRANO, 15, Malé
OSCAR GERARDO LOBO, 2, Islas Caimán
GERARDO SANDI, 25, Mbabane
GAUDENCIO RIVERA, 57, Islas Caimán
OSCAR CAMPOS, 7, Seúl
ANA LIA AGUILAR, 85, Estados Unidos
MANUEL FRANCISCO GARITA, 71, Astaná
GERARDO ANTONIO LARA, 60, Moscú
GLORIA OROZCO, 93, Praia
MARIA ELENA MORALES, 49, México
LIGIA MARIA MONGE, 48, Isla Pitcairn
DIVINA MORA, 3, Armenia
ANA ROSA ORDOÑEZ, 99, Vaticano
FLOR DE MARIA AGUERO, 26, Andorra
MIGUEL RIOS, 85, Mónaco
CARLOS LUIS VALVERDE, 76, Togo
LIGIA HERRERA, 5, Guam
RAFAEL MARIN, 9, Pionyang
RAFAELA RODRIGUEZ, 13, Mongolia
MARIA MORA, 83, Gabón
LUIS GERARDO ROJAS, 78, Andorra la Vieja
MARIO FRANCISCO CRUZ, 16, Ruanda
REINA MARIA MONGE, 10, Ghana
MARGARITA ARIAS, 67, Archipiélago de Svalbard
OLIVIER ARIAS, 71, Tokio
MARIA DE LOS ANGELES GUEVARA, 98, República Guinea
GLADYS PEÑA, 7, Bucarest
CARMEN MORA, 81, Guernsey
LUZ BERTA CALVO, 16, Freetown
RAFAEL ANGEL MORALES, 44, Filipinas
ROSA NAVARRO, 32, China
MARIA DE LOS ANGELES JACAMO, 44, Malta
CARLOS ENRIQUE VALENCIANO, 34, El Salvador
ZORAIDA LEON, 97, Kuwait City
GUILLERMO CARMONA, 49, Ottawa
EGIDIO VALVERDE, 13, Zaire
CARMEN CORDERO, 71, Sudáfrica
JORGE ENRIQUE MONTERO, 63, Argelia
EDITA ABARCA, 59, Botswana
ROSALIA ROJAS, 39, Islas Cook
MARIA CRISTINA SOTO, 70, Vientián
MINOR ANTONIO SOLANO, 3, Yaundé
MEILIN LEON, 10, Beirut
GABRIEL CHACON, 34, Nauru
ANTONIA ESTELIA MONTERO, 83, Estonia
ISAIAS EVANGELISTA MONGE, 13, Asjabad
MARIA FELICIA MENDEZ, 43, Estonia
FLOR DE MARIA GOMEZ, 37, Abu Dabi
JUANA SOLIS, 75, Nuakchot
VIRGINIA SARMIENTO, 93, Cuba
RITA SANCHEZ, 9, Luxemburgo
JUAN RAFAEL BARQUERO, 11, Djibouti
MANUELA CUBILLO, 9, El Salvador
MARCELIA VEGA, 56, Liechtenstein
MYRIAM MERCEDES SALAZAR, 44, Kinsasa
PEDRO DELGADO, 10, Islas de Heard y McDonald
ANA GLADYS TENCIO, 68, Albania
JORGE GERARDO CAMPOS, 42, Nueva Delhi
RODOLFO ELIZONDO, 9, Dili
NOEMI CUBILLO, 76, Yaundé
ENRIQUE DOMINGO SANDI, 53, Pretoria
NEFTALI SOTO, 77, Ucrania
MARIA ELENA SANDOVAL, 71, Vietnam
JORGE GARRO, 81, San Tomé y Príncipe
JULIETA LOPEZ, 73, Hungría
CECILIA GONZALEZ, 53, Kampala
ANA MILDRED VEGA, 96, Luanda
MARTA AMALIA NAVARRETE, 1, Egipto
ANTONIO CORRALES, 59, Yaundé
MARIA CRISTINA AGUERO, 16, Hanói
EFREN MURILLO, 56, Isla Bouvet
AUGUSTO CHAVARRIA, 42, Albania
WILLIAM LEON, 32, Doha
LUZ MENA, 90, Mbabane
OLDEMAR ELIECER ARIAS, 16, Tíbet
ALVARO MORA, 37, Praga
MARCOS LIDIO GARRO, 9, Bisáu
RODOLFO ROJAS, 78, Naipyidó
LILLIANA MARIA CAMPOS, 4, Bután
GILBERT CAMPOS, 24, Chipre
LUCIANA MARIA ARAYA, 27, Corea del Norte
JOHEL SALAZAR, 78, Madrid
LIDIA JIMENEZ, 12, Sierra Leona
NORA MARIA CALDERON, 82, Bosnia-Herzegovina
OLGA MARTA PIEDRA, 24, Riad
CECILIA MORA, 10, Yuba
FLOR DE MARIA SERRANO, 5, Angola
CLARA LUZ HERNANDEZ, 20, Daca
CARLOS ALBERTO MOLINA, 2, Liubliana
SAMUEL CASTRO, 98, Kinsasa
RAFAEL MENDEZ, 90, Saint George
ISABEL VINDAS, 12, Tanzania
MARIA CECILIA NARANJO, 49, Vaticano
JOSE MANUEL MORALES, 25, Bulgaria
MARGARITA ESTRADA, 95, Kabul
MARIA DE LOS ANGELES MONGE, 60, Luanda
MIRIAM ACOSTA, 59, Austria
OLGA MASIS, 51, Iraq
NELLY PORRAS, 87, Suva
DOLMAN CAMACHO, 44, Ghana
ISIDRO QUESADA, 72, Andorra
GERARDO VARGAS, 45, Ruanda
OVIDIO VILLALOBOS, 19, Nicaragua
VILMA ALTAMIRANO, 12, Montserrat
CARLOS ENRIQUE OVIEDO, 90, Japón
CARLOS ALBERTO CHAVES, 10, Riga
CARMEN CAMPOS, 34, Kingston
URIEL PICADO, 71, Manama
GRACE AYALA, 42, Chile
ALFREDO LOPEZ, 82, Freetown
REINA DE LOS ANGELES CAMBRONERO, 28, Madrid
FRANKLIN ZUÑIGA, 5, Tonga
OCTAVIO REYES, 88, Freetown
ROGER VARGAS, 44, Pretoria
JESUS JIMENEZ, 49, Sucre
MARIA CECILIA ZUÑIGA, 3, Ulán Bator
AMPARO HIDALGO, 86, Barbados
OSCAR CHINCHILLA, 36, Dusambé
BETTY AVILA, 28, Caracas
FERNELLY NARANJO, 58, Budapest
IRENE DEL BARCO, 5, Oslo
MARIA MAYELA FUENTES, 4, París
LIDILIA ALVAREZ, 19, Namibia
AURELIA PIEDRA, 56, Jersey
LUZMILDA CASTILLO, 4, Albania
BENIGNA CECILIA BARRANTES, 71, Ankara
JORGE ARTURO MIRANDA, 81, Brasilia
GERARDO HERNANDEZ, 91, Camerún
PABLO POCHET, 66, Países Bajos
ALVARO MORALES, 50, Bandar Seri Begawan
MARIA ELENA MORA, 48, Benín
JOSE ANGEL CAMPOS, 78, Malawi
NIDIA CRUZ, 58, República Centroafricana
ROSA MARIA LEON, 40, Yakarta
EDGAR BARZUNA, 1, Niue
HILDA MARIA VARGAS, 12, Antártida
MARIA ELENA DIAZ, 90, Brazzaville
MIGUEL ANGEL CHAVES, 75, Nuakchot
EDGAR HUGO MORA, 30, Panamá
CORALIA MORA, 16, Ankara
MARIA MAYELA ALVAREZ, 14, Manama
EDWIN CASTRO, 11, Uzbekistán
ODILI ANGULO, 2, Nasáu
LIGIA MARIA CAMPOS, 25, Islas de Heard y McDonald
ESTRELLA CORDOBA, 97, Paraguay
ISABEL ARROYO, 72, Lituania
SONIA CECILIA LEMAIRE, 4, Madagascar
MARIA AGUERO, 32, República Democrática del Congo
MARIA DE LOS ANGELES CHACON, 20, Dodoma
ALEXA AZOFEIFA, 79, Corea del Norte
BETTY RETANA, 64, Samoa Americana
MARIA ISABEL OROZCO, 8, Luanda
MANUEL CHACON, 11, Panamá
FREDDY ACUÑA, 38, Andorra
HILDA MARIA FERNANDEZ, 34, Dili
RAMONA AUDELINA CALDERON, 50, Chile
NEFTALI SALGADO, 2, Armenia
ALVARO BLANCO, 74, Sri Lanka
ELIZABETH ROBLES, 31, Yemen
LEILA MORA, 78, Oslo
HECTOR MANUEL MOYA, 17, Yibuti
MARIA DE LOS ANGELES CALDERON, 40, Brunei Darussalam
CECILIA QUIROS, 38, Berlín
JAIME DARENBLUM, 50, Malé
JESUS MANUEL VIVES, 94, Praga
ALICIA MENDOZA, 1, Singapur
MIREYA ZUÑIGA, 86, Belgrado
HAYDEE MORA, 90, Singapur
GRACIELA HAYDEE LEON, 89, Burundi
DELIO SALAZAR, 15, Maputo
JORGE ENRIQUE VILLALOBOS, 48, Dakar
CARLOS ROBERTO NAVARRO, 13, Timor Oriental
HUMBERTO RODRIGUEZ, 45, Riga
JULIO ENRIQUE SANCHEZ, 2, Puerto Rico
BIENVENIDA SOLIS, 86, Tanzania
ILEANA MARIA MORA, 6, Isla Ascension
ULISES DELGADO, 21, Eslovenia
ELENA ORTIZ, 25, Yaren
MERCEDES CARAVACA, 62, República Dominicana
FRANCISCO ARIAS, 66, Tadjikistan
ELVIA MENA, 25, Isla De Navidad
MARIA LISBETH MONGE, 26, Bangui
JESUS RAMON ARAYA, 30, Antananarivo
MARIA HIGINIA VALVERDE, 65, El Salvador
DELIO HERNANDEZ, 42, Malta
FRANCISCO HERNANDEZ, 32, Lusaka
MARIA LUISA VALVERDE, 51, Guatemala
MYRIAM RAMOS, 35, Bangkok
GUILLERMO BADILLA, 1, Islas Turcas y Caicos
ADALBERTO ANTONIO DELGADO, 46, Nueva Caledonia
GILBERT PANIAGUA, 14, Finlandia
EIDA FONSECA, 31, Thimphu
CARLOS ENRIQUE MORALES, 30, Bolivia
MAYRA PORRAS, 85, Antártida
TERESA LEON, 10, Santiago
MARIA EUGENIA CHINCHILLA, 95, Reunión
DUILIO EGIDIO TENTORI, 89, Nairobi
ANA CECILIA AGUILAR, 47, Zaire
ENRIQUE GOMEZ, 14, Canberra
SANTIAGO ALPIZAR, 27, Teherán
WALTER ZAMORA, 45, Santa Lucía
DARVIN VILLALOBOS, 51, Malasia
MARIA ELENA ARROYO, 68, Puerto Príncipe
CARLOS MANUEL FLORES, 4, Dublín
MELBA ARGUEDAS, 26, Montenegro
AMPARO AVALOS, 17, Bandar Seri Begawan
RAFAEL ANGEL ZAMORA, 88, Letonia
GLADYS VARELA, 31, Bisáu
ADOLFO CASTRO, 89, Italia
FERNANDO PEREZ, 75, Uagadugú
CECILIA TREJOS, 91, Freetown
JEANNETH MARIN, 4, Helsinki
AIDA TERESA UMAÑA, 96, Indonesia
ORLANDO CARRILLO, 40, Tokio
SILVIA AGUILAR, 34, Cuba
JOSE LUIS CARDENAS, 98, Timor Oriental
CATALINA ALVARADO, 34, Comores
PLINIO LEIVA, 74, Nauru
MARIA SOCORRO LOPEZ, 49, Oslo
OLGA MARTA FERNANDEZ, 4, Kirguistán
CARMEN SOLIS, 26, Macao
OLGA MARIA MORALES, 80, Cabo Verde
CARMEN MARIA CHACON, 96, Islamabad
THELMO VARGAS, 20, Zaire
ROBERTO GOMEZ, 91, Islas Virgenes Americanas
VICTOR MANUEL VALERIO, 22, Mónaco
ROBERTINO SILES, 63, Lilongüe
MARIA EMILIA ARAYA, 63, Saint George
ELPIDIO MATAMOROS, 19, Tailandia
MELQUIADES PEREZ, 84, Islas Feroe
MARIA PORTUGUEZ, 69, Surinam
NORMA CHAVARRIA, 87, Islamabad
CECILIA BARRANTES, 58, Victoria
VILMA BEECHE, 78, Adís Abeba
ESPERANZA FERNANDEZ, 84, Georgetown
LORENZO QUIROS, 7, Nuakchot
FLOR MARIA OTAROLA, 66, Port Louis
LUIS DIEGO CAÑAS, 100, Vietnam
FERNANDO QUIROS, 37, Sofía
JOSE ANGEL LOPEZ, 74, Tarawa
ANA ISABEL SOTO, 10, Mayotte
JORGE LUIS VASQUEZ, 16, Surinam
GUILLERMO ROJAS, 75, Antigua y Barbuda
CARLOS JIMENEZ, 88, Estados Federados de Micronesia
CECILIA GONZALEZ, 84, Puerto España
WALTER BRICEÑO, 32, Samoa Americana
GERARDO CARMONA, 13, Amán
ELSA MARIA ARAYA, 100, Ciudad del Vaticano
LIDIA ROSA VARGAS, 23, Bagdad
RUTH MARITZA ULATE, 94, Puerto Moresby
MARIA ISABEL RODRIGUEZ, 1, Buenos Aires
EDUARDO OTAROLA, 51, Beirut
SANDRA ALICIA PEARSON, 35, Swazilandia
MARGARITA SOLANO, 44, Bisáu
MARIETA SANCHEZ, 77, Eritrea
BIENVENIDA CATALINA VARGAS, 21, Rusia
FLORA SALAZAR, 89, Jerusalén
ALFREDO RODRIGUEZ, 42, Libreville
LUIS ALBERTO AVILA, 82, Argentina
OLGA BADILLA, 95, Islas Caimán
NURIA MARIA MAS, 88, Conakri
LUISA LILLIAM ABARCA, 47, Liubliana
MARIA BETINA GODINEZ, 1, Arabia Saudita
JENNY CERVANTES, 7, Croacia
MARIA ELENA ASTUA, 23, Brunei Darussalam
MARIA CRISTINA CHACON, 29, Macao
MARIA LUISA CHANTO, 21, Islas Salomón
FLORIBETH ROJAS, 4, Haiti
DAISY BARRANTES, 58, Chad
CRISPIN ROBLES, 72, Uagadugú
JOSE CLAUDIO CALDERON, 87, México
MYRIAM ROJAS, 62, Mayotte
JOSE RIVERA, 33, Bulgaria
DIGNA MARIA SEGURA, 8, Andorra
GUILLERMO ANTONIO BENAVIDES, 80, Palikir
RODRIGO RAMIREZ, 4, Bangui
JOSE MARIA GARBANZO, 54, Jerusalén Este
MONTSERRAT BORASCHI, 65, Myanmar
OMAR HIDALGO, 16, Banjul
MANUEL CHAVARRIA, 5, Zaire
RAMIRO JIMENEZ, 17, Eritrea
CARMEN RODRIGUEZ, 80, Burundi
MARIA DE LOS ANGELES SEQUEIRA, 74, Port Vila
ZORAIDA JIMENEZ, 94, Afganistán
ERNESTO MUÑOZ, 64, Isla Man
MARCO ANTONIO BARRANTES, 7, Georgia
RAFAEL VALLE, 98, Sierra Leona
CARMEN MARIA IBARRA, 58, Nasáu
ELISEO JIMENEZ, 49, Moroni
FERNANDO ABARCA, 56, Papúa-Nueva Guinea
MARIA CECILIA VENEGAS, 92, Apia
MARIA CRISTINA LOBO, 2, Kirguistán
RICARDO SOLIS, 46, Caracas
LUISA BADILLA, 49, Sucre
OSCAR FONSECA, 44, Tarawa
ELSA MARTA CAMPOS, 57, Macao
OLGA NAVARRO, 4, Burundi
MIGUEL ANGEL SOTO, 45, Botswana
VIRYA MARIA GONZALEZ, 38, Helsinki
MARIA DEL ROSARIO MARIN, 17, China
LIBIA MARIA HUETE, 86, Gambia
HECTOR MONGE, 53, Austria
LUIS FERNANDO VARGAS, 88, Maputo
JOSE ANGEL RODRIGUEZ, 100, Wellington
CARLOS ALBERTO MURILLO, 82, Macao
JUAN RAMON BRENES, 27, Malé
MARIA CECILIA VALVERDE, 56, Burkina Faso
JOSE ANTONIO RODRIGUEZ, 47, Pretoria
MARIA MAYELA FUENTES, 42, Kingston
MARIA EUGENIA ABARCA, 25, Zimbabwe
ETELVINA DURAN, 85, Myanmar
ANA CECILIA VINDAS, 51, Lima
RECAREDO JIMENEZ, 22, Belgrado
RENE GARCIA, 4, Gibraltar
ANTONIO MASIS, 20, Nicaragua
PEDRO VENEGAS, 42, Bielorrusia
ANIBAL CARMONA, 85, Luanda
ADITA BERMUDEZ, 36, Yibuti
HERNAN GERARDO MARTINEZ, 32, Micronesia
ALIX HIDALGO, 84, Puerto España
LIVIO SANDI, 57, Reino Unido
MARIA DEL CARMEN MATAMOROS, 98, Wallis y Futuna
JORGE JESUS GAMBOA, 65, Viena
JEANNETTE PARRALES, 3, República Democrática del Congo
HORTENSIA VARGAS, 72, Brazzaville
JUAN MANUEL CHAVARRIA, 53, Teherán
MARIA DE LOS ANGELES QUESADA, 93, Yakarta
ENRIQUE OVARES, 88, Honduras
GERARDO ENRIQUE CALDERON, 55, Lusaka
SONIA MARIA CASTILLO, 13, Tíbet
ORLANDO CRUZ, 19, Niue
ANANIAS PRADO, 63, Castries
DAMARIS CHINCHILLA, 74, Bamako
LUZ DAMARIS MENDEZ, 35, Damasco
JOSE ALBERTO BERMUDEZ, 95, Palau
ELICINIO MONTERO, 25, Gibraltar
WILLIAM GUZMAN, 12, Noruega
MARIA JOSEFA SERRANO, 56, Rusia
ARACELLY BLANCO, 82, Maldivas
MARITZA YALILE ARGUEDAS, 65, Praia
RUTH FONSECA, 63, Oslo
MARIO ROJAS, 83, Canadá
MANUEL MONTERO, 93, Surinam
MANUEL EDMUNDO MENA, 27, Sucre
OLIVIER SALAZAR, 91, Guayana Francesa
ZOILA ROSA CASTILLO, 8, Abu Dabi
JUAN GABRIEL SALAZAR, 44, Benín
GUILLERMO ALEXIS ROJAS, 95, Zagreb
VIRGILIO RODRIGUEZ, 66, Eslovenia
JOSE LEON, 66, Nigeria
ANA MARIA CESPEDES, 49, Nigeria
WILLIAM GERARDO HERNANDEZ, 2, Colombia
HECTOR RIVERA, 64, Samoa Americana
EMILIA FERNANDEZ, 30, Quito
VIRGINIA CALVO, 42, Riad
RAMON NICANOR ESTRADA, 25, Dusambé
TOBIAS UREÑA, 9, Singapur
FRANKLIN ZAMORA, 72, Emiratos Árabes Unidos
JORGE MANUEL RETANA, 68, Cabo Verde
VIRGINIA DIAZ, 26, Doha
NAZRA ELENA AYUB, 76, Bután
SONIA MARIA VALVERDE, 50, Kabul
TERESA DURAN, 46, Trípoli
ALEXA SANCHEZ, 62, Sri Jayawardenapura Kotte
FILIBERTO JIMENEZ, 13, Pakistán
ALVARO VALVERDE, 17, Riad
LILIETH HORTENSIA REID, 55, San Pedro y Miquelón
GERARDO CALDERON, 27, Sudo Georgia y los Islas Sandwich del Sur
ULISES GARRO, 24, Sierra Leona
GERARDO ANTONIO MORA, 1, Gibraltar
ALCIDES AGUILAR, 51, Malta
JOSE LOPEZ, 97, Islas de Heard y McDonald
FRANCISCO ELIZONDO, 81, Hungría
LUZMILDA CERDAS, 36, Puerto Rico
MARIA ELENA SABORIO, 18, Túnez
YADIRA ALVARADO, 33, Singapur
JUAN ROBERTO MORA, 83, Maldivas
MARGARITA CORELLA, 19, Oslo
LIDIA CASTRO, 55, Islas Virgenes Americanas
GERARDO HIDALGO, 98, Pakistán
MARIA DE LOS ANGELES ALFARO, 43, Alemania
MARGARITA MONTERO, 22, Tokio
RAMON PICADO, 92, Puerto Moresby
JUAN RAFAEL CALDERON, 55, Dinamarca
ADELIA CISNERO, 81, Asmara
RAFAELA RIVERA, 80, Guatemala
ROGER BARBOZA, 27, República Dominicana
ANA ISABEL SOLIS, 83, Kuwait
EDGAR FERNANDEZ, 24, Serbia
MARIA EUGENIA MORA, 51, Venezuela
GRETEL GILDA CAMACHO, 77, Santa Lucía
ALFREDO BERMUDEZ, 14, Islas Virgenes Británicas
SOCORRO MARTA JIMENEZ, 25, Londres
VERA LOAIZA, 89, Ankara
MYRNA PACHECO, 29, Macao
JUAN CARLOS SALAZAR, 51, Guadalupe
MARCO TULIO CAMPOS, 29, Dodoma
CARMEN LOPEZ, 1, Mbabane
CECILIA DEL CARMEN BARRANTES, 11, Madrid
JOSE ENRIQUE CALDERON, 71, Yuba
LIBIA MONTERO, 47, Varsovia
FEDERICO MORA, 16, Bucarest
MARIA CRISTINA ROJAS, 89, Grecia
FERNANDO SOLIS, 87, Guatemala
NORMAN PALMA, 38, Samoa
NOEMY NAVARRO, 95, Libia
LILLIANA NOEMY NAVARRO, 73, El Salvador
MARIA LUISA ESQUIVEL, 44, Jamaica
ADALILA UREÑA, 82, Chad
GUILLERMO ELADIO QUIROS, 76, Jordania
BETINA SALAZAR, 75, Kigali
GILDA MARIA ARAYA, 7, México
HUGO QUESADA, 81, Georgia
VIRGINIA GAMBOA, 7, Accra
ALAMAR AGUERO, 39, Grecia
JOSE FRANCISCO ALVARADO, 98, Comores
ODILIE ALICIA NAVARRO, 48, Thimphu
RAFAEL ANGEL CHACON, 44, Dakar
AMALIA CASTILLO, 21, Mongolia
RODRIGO MASIS, 50, Liberia
ADELIA CRUZ, 14, Ereván
NIDIA VALVERDE, 16, Micronesia
ODILON ANGEL VARGAS, 24, Madrid
ESTRELLA PORRAS, 88, Gambia
LIGIA CAMBRONERO, 53, Asmara
CARLOS MANUEL VASQUEZ, 88, Naipyidó
FLOR MARIA MORA, 73, Omán
ARACELLY CHACON, 19, Harare
MARIA CONCEPCION FALLAS, 94, Argel
ZAMADY MADRIGAL, 64, Chad
MARTA IDALIE JIMENEZ, 85, San Marino
VILMA HERNANDEZ, 14, Cuba
JOSE MANUEL OBANDO, 77, Harare
LUIS GUILLERMO ZELEDON, 13, Singapur
ADORACION MORA, 99, Corea del Norte
MARIA DE LOS ANGELES HIDALGO, 97, Madrid
JAVIER GERARDO ARIAS, 58, Jersey
CARLOS LUIS MARIN, 17, Ankara
MARGARITA BADILLA, 75, Maldivas
MIRNA INFANTE, 21, Puerto Moresby
OLIVIA MELBA SALAS, 57, Maldivas
TEODORO TROZ, 93, Georgetown
LEONIDAS SANCHEZ, 86, Wellington
EDUARDO PORRAS, 45, Comores
TERESITA SALAZAR, 37, Mayotte
MARIA DEL CARMEN VEGA, 41, República Checa
BLANCA ROSA MENA, 46, Moscú
MARIA LIGIA CHINCHILLA, 56, Bielorrusia
GERARDO ROMERO, 90, Uganda
ROSALINA AZOFEIFA, 91, Lomé
CECILIA MARIA RUIZ, 6, Palestina
CARMEN MARIA LEON, 13, Lesotho
AMERIDA VARGAS, 49, Federación Rusa
YOLANDA MONTOYA, 90, Nueva Delhi
MARIA MADRIGAL, 88, Palestina
JENARO SANDI, 37, Yamusukro
SANDRA ALVAREZ, 64, Kinsasa
MARTA EUGENIA PAEZ, 3, Letonia
MARIA DE LOS ANGELES PAEZ, 35, Isla De Navidad
FRANCISCO ROJAS, 100, Costa de Marfil
RAMON CESPEDES, 49, Moldavia
LADY CARBALLO, 52, Guayana Francesa
MARIA EVELIA GAMBOA, 92, Asjabad
ROBERTO PASAPERA, 70, Buenos Aires
RAFAEL ALFARO, 9, Túnez
CARLOS MANUEL HIDALGO, 18, Wellington
SOCORRO CHAVARRIA, 38, India
EDUARDO CARRION, 28, Daca
CARLOS LUIS CASTRO, 89, Mozambique
ROSA MARIA QUESADA, 2, Argelia
CARLOS CHAVES, 33, Buyumbura
FLOR MARIA ABARCA, 91, Moscú
DORIS LOBO, 48, Belmopán
EVELIA LEIVA, 92, Timor Oriental
ENRIQUE HIDALGO, 31, Lomé
CARLOS ROBERTO NAVARRO, 65, Malé
DAISY CRISTINA MUÑOZ, 100, Pristina
MARIA EUGENIA VARGAS, 30, Brunei Darussalam
MARIA ANTONIA MONGE, 21, El Salvador
JUANA RODRIGUEZ, 100, Tiflis
PORFIRIO RODRIGUEZ, 73, Brasilia
BOLIVAR MORA, 41, Mayotte
FREDERICK EARL BRENES, 48, Melekeok
ARGENTINA QUIROS, 28, Vilna
FERNANDO AYALES, 81, Oslo
EVADINA FONSECA, 41, Maseru
GERARDO ANTONIO BOLAÑOS, 61, Somalia
EVANGELINA CASTRO, 10, Minsk
ARACELLY DURAN, 60, Yamusukro
BOLIVAR GERARDO SAENZ, 5, Gibraltar
ROBERTO NARANJO, 30, Santa Elena
LUIS CARLOS VARGAS, 24, Islas Cocos
CARLOS ENRIQUE LEDEZMA, 51, Tallin
JOSE GERARDO LEON, 50, París
RODRIGO CESPEDES, 6, Budapest
OLGA ARIAS, 96, Abuya
MERCEDES BERMUDEZ, 16, Quito
CARLOS ALBERTO RODRIGUEZ, 21, México
NELLY SANCHEZ, 50, Amán
FLOR DE MARIA MURILLO, 35, Buyumbura
EVANGELISTA ROJAS, 90, Skopie
DINORAH PEREZ, 1, Marruecos
ELSIE MARY CASCANTE, 57, Dominica
JORGE LUIS ALPIZAR, 74, Perú
ZAIRA NURIA ZELEDON, 44, Sáhara Occidental
GLORIA SONIA SANDOVAL, 26, Irán
JOSEFINA MATAMOROS, 61, Damasco
MARIA ELENA MORA, 81, Portugal
ELIECER BORBON, 3, Bangkok
LAUREANA CAMBRONERO, 57, Kenia
BENILDA ZUMBADO, 73, Archipiélago de Svalbard
EMILCE MENA, 22, Bulgaria
MANUEL ANTONIO BLANCO, 13, Naipyidó
JOHNNY MORA, 17, Beirut
MARIA MAGDALENA GARCIA, 70, Sáhara Occidental
CARMEN MARIA ARGUELLO, 63, Barbados
ELIZABETH QUIROS, 44, Niger
ISAIAS VARGAS, 42, Majuro
ANTONIA CORRALES, 9, Harare
ZENEIDA LEON, 54, Panamá
FREDY MARIN, 42, Antigua y Barbuda
HAYDEE ROMAN, 41, Corea del Norte
ZAIDA MARIA ASTUA, 15, Trípoli
CARLOS FERNANDO CAMPOS, 15, Iraq
ALEXIS MASIS, 14, Kuala Lumpur
AURORA PRADO, 62, Malta
JOSE LUIS PADILLA, 42, Palikir
MAYELA PORRAS, 35, Quito
JAVIER ARIAS, 48, Samoa
MARTA OFELIA GARITA, 83, Arabia Saudita
MARIA ROSA MORA, 2, Maseru
CARLOS EDUARDO ROMERO, 6, República Guinea
AIDA MARIA ALPIZAR, 29, Siria
MANUEL ANTONIO SEQUEIRA, 13, Sudán
ARACELLY CASTRO, 5, Filipinas
LUIS MAYNOR ESPINOZA, 19, Tuvalu
JOSE MANUEL QUIROS, 48, Pakistán
JORGE ARTURO CALVO, 34, Tokelau
MARTA JIMENEZ, 82, Malasia
GUILLERMO MIRANDA, 98, Atenas
YAMILETH NAVARRO, 74, Isla Ascension
GISELLE GARNIER, 30, Iraq
MARIA OFELIA ARAYA, 80, Abuya
CARLOS LUIS CHAVARRIA, 55, Reikiavik
RAMON EVELIO CORDERO, 85, Georgia
GERARDO GOMEZ, 56, Puerto España
ALAMAR MURILLO, 1, Singapur
MARTA LOIDA QUESADA, 80, Islas Feroe
HILDA CORDERO, 12, Lisboa
LUIS ALBERTO SANCHEZ, 20, Emiratos Árabes Unidos
VICTOR BARBOZA, 89, Malta
FABIO AMADOR, 90, Luanda
ELVIRA CASTILLO, 29, Ankara
IRIS BEATRIZ PACHECO, 99, Honiara
MARIA DEL CARMEN TORRES, 96, México
RODOLFO MORA, 57, Nepal
VICTOR MANUEL PORRAS, 23, Saná
ISIDRO ROMAN, 8, Nepal
LUZ MARIA SANDI, 92, Guatemala
JEANNETTE ARROYO, 15, Castries
JOSE CAYETANO MORA, 75, República Guinea
MAGDALENA ALVARADO, 98, Banjul
ESTRELLA MAYELA ARTAVIA, 26, Manama
ROGER PEREZ, 57, Islas Virgenes Americanas
ANA ISABEL BRENES, 32, Castries
IRIS BADILLA, 7, Yaundé
CARLOS ALBERTO ARAYA, 40, San Tomé y Príncipe
CARLOS ALBERTO PANINSKI, 42, Azerbaiyán
JUAN RAMON SALAZAR, 9, Singapur
HUGO FRANCISCO ALVARADO, 67, Sarajevo
ZENEIDA MORA, 53, Apia
LUCIA DEL ROSARIO GARCIA, 34, Islas Cocos
OLGA RODRIGUEZ, 14, Croacia
JUANA MONGE, 26, Tiflis
MARIA DE LOS ANGELES LARA, 30, Roseau
LUIS ANGEL MORALES, 81, Yaren
FLORY CORDERO, 68, Malí
ARMENIA SOTO, 39, Biskek
LUIS ENRIQUE JIMENEZ, 89, Islas de Heard y McDonald
JOSE ENRIQUE ARIAS, 45, Dinamarca
EDGAR ZUÑIGA, 16, Sudáfrica
ANIBAL FLORES, 75, Guinea Bissau
JUDITH MORA, 55, Papúa-Nueva Guinea
FLORY SANCHEZ, 100, Kampala
MARTA MARIA BARRIENTOS, 25, Dominica
MIREYA GUILLEN, 14, San Vincente y Granadinas
DELFIN EDWIN ZAMORA, 9, Belice
DAISY SINAI RIOS, 3, Moscú
RAFAEL ANGEL HERNANDEZ, 83, Tirana
OSCAR CORDERO, 49, Managua
JOSE ALBERTO BADILLA, 34, Saint John
BERNARDA VALENZUELA, 24, Belgrado
CARMEN MARIA FICKLIN, 52, Bosnia-Herzegovina
MARIA DEL CARMEN MORA, 72, Varsovia
HILDA MARIA ACUÑA, 21, Vaticano
CELIA ISABEL LOPEZ, 29, Palikir
CORINA RODRIGUEZ, 27, Santa Elena
WALTER CASTILLO, 72, San Marino
DANILO SALAZAR, 82, Trinidad y Tobago
ORLANDO CHACON, 87, Guatemala
LETICIA CALDERON, 29, Groenlandia
JORGE ALBERTO GOMEZ, 53, Guinea Ecuatorial
JOSE LUIS MENA, 31, Luxemburgo
MARIA DE LOS ANGELES PRADO, 59, Conakri
PASTORA SOLANO, 4, Malí
MARIA DEL ROSARIO JIMENEZ, 66, Macao
JUAN JOSE FALLAS, 69, Belice
COSME VALVERDE, 7, Jerusalén
ADOLFO MORALES, 76, Singapur
RODRIGO VIDECHE, 98, Zimbabwe
BLANCA EUGENIA PADILLA, 7, Sáhara Occidental
MARIA ENEIDA SEGURA, 63, Tirana
ELIZABETH CASCANTE, 68, El Salvador
GERARDO ENRIQUE CASTRO, 92, Saint John
HUGOLINA VALVERDE, 69, Bangkok
MARIA ISABEL SEAS, 62, Malé
FRANKLIN RAPSO, 4, Belice
BLANCA ROSA MORENO, 7, Camboya
PILAR TERESA CUBILLO, 63, Suecia
GILBERTO QUESADA, 47, Bandar Seri Begawan
CARLOS MANUEL MORENO, 50, Kingston
BENJAMIN ROMERO, 54, Líbano
MATILDE CASTRO, 10, Mayotte
JORGE TORRES, 77, El Cairo
FLORY DEL CARMEN MONGE, 10, Berna
ROBERTO RAMON POCHET, 39, Biskek
DINORAH CHAVES, 72, Taipéi
FERNANDO VARGAS, 16, Puerto España
JORGE HERNANDEZ, 55, Portugal
CARLOS LUIS QUIROS, 66, Tirana
HUGO SANCHEZ, 77, Yaundé
VICTOR HUGO FLORES, 8, París
EUGENIA VARGAS, 34, Reunión
DIONICIO MONGE, 83, República Checa
PEDRO SOLIS, 89, Wallis y Futuna
MARIA DE LOS ANGELES CHACON, 78, Pristina
AMALIA ALVARADO, 44, Belgrado
MARIO GERARDO HERRERA, 30, Asjabad
ALVARO ANTONIO RODRIGUEZ, 7, Siria
MARIA TERESA RODRIGUEZ, 1, Singapur
GUSTAVO MARIN, 82, Santa Lucía
GERARDO MONTES, 19, Mascate
ELENA MIRANDA, 97, Groenlandia
LUIS ANGEL VARGAS, 49, Bratislava
JUAN JOSE ALVARADO, 30, Ankara
HORTENSIA RIOS, 29, Botswana
LUIS ANGEL QUESADA, 77, Islas Virgenes Americanas
JAIME GARBANZO, 75, Taiwan
EMILCE CORDERO, 100, Uganda
MARIO MONGE, 79, México
ELIETTE ZAMORA, 53, Islas Virgenes Americanas
OLGA MARTA REYES, 86, Yaundé
ENOS MANUEL SEGURA, 52, Líbano
ADOLFO HERRERA, 90, Territorio Británico del Océano Indico
ROSARIO AQUILINA BLANCO, 21, Buyumbura
RAFAEL ANGEL PIEDRA, 3, Brazzaville
MARIA ELENA PORRAS, 47, Victoria
MARIO ALBERTO LOBO, 18, Argentina
JESUS SANCHEZ, 78, Estocolmo
ANA CECILIA CHACON, 86, Polonia
SERGIO BONILLA, 64, Togo
ALVARO SALAZAR, 11, Maseru
FERNANDO CASTILLO, 4, Panamá
JOSE MANUEL CHAVARRIA, 79, Francia
SIDAR LUIS GUERRERO, 70, Zimbabwe
MARIA JULIA GONZALEZ, 88, Vientián
CLEMENCIA MORA, 78, Isla Bouvet
LIDIETH MEZA, 18, Astaná
ANA ISABEL VILLARREAL, 53, Irán
ISIDRO VARGAS, 59, Reunión
ELBA ROSA ALVARADO, 14, Brasil
PATRICIA CHACON, 81, Tiflis
SANDRA MARIA REDONDO, 59, Samoa
FELICIA CASTILLO, 50, Federación Rusa
DAGOBERTO SALAZAR, 22, Senegal
ALVARO JIMENEZ, 27, Majuro
MANUEL HUMBERTO POLINI, 54, República Centroafricana
JUAN ANTONIO POLANCO, 91, Qatar
CARLOS ALBERTO HERNANDEZ, 85, Manama
MARGARITA MORALES, 45, Beirut
MARIA FRANCISCA SOLANO, 54, Guam
BIENVENIDO ABARCA, 84, Eslovaquia
MARIA DE LOS ANGELES MELENDEZ, 20, San Pedro y Miquelón
[...]
MARIA DEL ROSARIO BLANCO, 3, Tokelau
GERARDO SOLIS, 34, Liubliana
VIRGILIO BUSTAMANTE, 20, Macao
VILMA MARIA ELIZONDO, 31, Bélgica
ANA CECILIA QUESADA, 39, Isla Christmas
YENNY CHAVES, 23, Praia
RICARDO MATA, 52, Isla Christmas
SONIA GONZALEZ, 5, Argel
ALEXIS TORRES, 47, Chile
LIGIA RODRIGUEZ, 43, Uganda
ANA MARIA CAMPOS, 25, Surinam
CARLOS LUIS VALVERDE, 74, Argelia
ANA CECILIA CARMONA, 49, París
MARIA TERESA CABEZAS, 85, San Tomé y Príncipe
ANTONIO CALVO, 64, Camboya
PEDRO JOAQUIN CALDERON, 92, Madrid
JULIO ENRIQUE QUIROS, 2, Bolivia
HENRY MENDEZ, 5, Doha
FRANCISCA ESQUIVEL, 15, China
BRIGIDA VALVERDE, 91, Sierra Leona
DINORAH LAURA VALVERDE, 8, Yamena
CARMEN ALVARADO, 47, Senegal
NATIVIDAD RODRIGUEZ, 75, Windhoek
GILDA MORENO, 6, Atenas
CLAUDIO MORA, 29, Taskent
DELFIN VASQUEZ, 96, Palau
RAFAEL ANGEL BERMUDEZ, 44, Federación Rusa
MARIA ANTONIETA CALVO, 20, Quito
GERARDO JIMENEZ, 83, Madrid
CORALIA CALDERON, 28, Martinica
JUAN RAFAEL LEON, 33, Isla Pitcairn
LEONARDO ALEXIS CARMONA, 84, Vientián
MARIA FABIOLA CASTRO, 79, Namibia
MARIA LUISA PANIAGUA, 34, Manama
LAURA SANDOVAL, 100, Estados Unidos
DEYANIRA RIVERA, 22, Podgorica
EFRAIN MESEN, 65, Sudáfrica
GILBERT BUSTAMANTE, 1, Ankara
SONIA LIGIA MORA, 68, República del Congo
JOSE ARIAS, 2, San Pedro y Miquelón
BLANCA LUZ BADILLA, 77, Ámsterdam
TERESA CALVO, 38, Federación Rusa
MIGUEL ANGEL SOLIS, 96, Antigua y Barbuda
INDALECIO CHAVES, 94, Bélgica
MARIA ELENA CORDERO, 7, Papúa-Nueva Guinea
CARLOS MORA, 72, Reino Unido
LUIS FELIPE HERRERA, 60, Porto-Novo
ALBA CASTRO, 12, Port Louis
CARLOS MENDEZ, 6, Mascate
ELIZABETH FALLAS, 27, Tokio
IRIS MORA, 45, Perú
JOSE EDUARDO GOMEZ, 81, Buyumbura
ELIET ARIAS, 30, Países Bajos
JONAS CASTRO, 41, Tokio
FLOR DE MARIA GARCIA, 8, Mascate
RAFAEL ALBERTO ACUÑA, 43, Bucarest
ERNESTINA CORRALES, 84, Pekín
CECILIA NUÑEZ, 57, Isla De Navidad
ALVARO LUNA, 4, Tokelau
PAULINO AGUERO, 57, Nuakchot
MARIA ISABEL JIMENEZ, 12, Kuala Lumpur
WILLIAM BRENES, 40, Bakú
JOSE JENARO CAMPOS, 4, Bangui
MARIA CECILIA PEREZ, 98, Nairobi
ELISA MARIA BARBOZA, 17, Skopie
CARMEN SOLIS, 1, Kampala
ANA YADIRA SIBAJA, 33, Melekeok
HAYDEE RETANA, 68, Adís Abeba
MARIA ISABEL HIDALGO, 55, Castries
JORGE ANTONIO ECHEVERRIA, 51, Montserrat
EDGAR URIAS CORRALES, 9, Dinamarca
DOLORES HORTENSIA MONTERO, 71, Palestina
CARMELINA JARA, 82, México
MARIA LETICIA ARRONIS, 9, Armenia
NORIS ISABEL GONZALEZ, 46, Taiwan
GONZALO UREÑA, 70, Malé
MARIA ELENA ARAYA, 52, Ereván
MARIA DEL CARMEN ZUÑIGA, 52, Moscú
HERBERT GERARDO LEON, 39, Emiratos Árabes Unidos
VICTOR MANUEL GONZALEZ, 27, Bulgaria
FLORA ROXANA CHACON, 4, Montenegro
MARIO MORA, 74, Comores
EFRAIN UREÑA, 91, Botswana
JOSE MANUEL GONZALEZ, 12, Quito
MARIA EMILIA NAVARRO, 53, Martinica
ZENEIDA FERNANDEZ, 10, Letonia
MARGARITA GAMBOA, 90, Taskent
MARIA ISABEL RODRIGUEZ, 14, Groenlandia
MIGUEL ANGEL ZUÑIGA, 18, Ecuador
MARIA MARTA TRUQUE, 25, Hong Kong
OFELIA SALAZAR, 21, Palikir
JOSE LUIS PRADO, 16, Accra
ERNESTINO MORA, 20, Estocolmo
MARIA CECILIA FERNANDEZ, 40, Rumanía
ANA ISABEL PICADO, 60, Wellington
ALICE MURILLO, 100, Venezuela
CELINA CORDERO, 12, Marruecos
NOEMI ARIAS, 41, Malé
JORGE MURILLO, 56, Manila
RICARDO COUDIN, 7, Londres
ALBA MARIA TENORIO, 8, Indonesia
LIDIA PORRAS, 42, Bruselas
LETICIA RODRIGUEZ, 42, Burundi
SAMUEL MONTOYA, 70, Líbano
MIRIAM VILLALOBOS, 76, Beirut
FAUSTO ZUÑIGA, 27, Guinea Bissau
LIDIETTE CASTILLO, 18, Cabo Verde
RAFAEL ANGEL MORA, 100, Timor Oriental
RAFAEL ANGEL GUTIERREZ, 58, Bélgica
RAFAEL ANGEL JIMENEZ, 30, Buenos Aires
CECILIA ABARCA, 67, Luanda
VIRGINIA CRUZ, 69, Laos
RICARDO LUIS VALVERDE, 53, Guatemala
PASCUAL AGUERO, 10, Chisináu
ANA MARIA RAMIREZ, 89, Santa Elena
ARABELA UREÑA, 96, Apia
DINORAH CALVO, 90, Panamá
DAVID ARAYA, 58, Antártida
DULCELINA VARGAS, 70, Guernsey
CARMEN VALVERDE, 24, Croacia
EDGAR BARRIENTOS, 27, Kigali
PASCUAL MORA, 25, Liubliana
MARIA AUXILIO MASIS, 11, Bolivia
JOSE ENRIQUE CHAMBERLAIN, 25, Ulán Bator
ZULMA CECILIA CALDERON, 81, Harare
RAFAEL ANGEL SALAZAR, 48, Liubliana
TERESA CUBERO, 31, Nigeria
ADOLFO QUESADA, 49, Sudán
LIDIETTE ARRIETA, 22, Yaundé
LUZ MARIA GUTIERREZ, 39, Camerún
OBELI CHINCHILLA, 87, Biskek
EUGENIA RODRIGUEZ, 7, Armenia
SOLEDAD ALVARADO, 73, Barbados
MARIA ULLOA, 33, Yaren
MARGARITA CHINCHILLA, 36, Porto-Novo
RAMON FLORENCIO ZELEDON, 74, Hanói
BENILDO MARIN, 52, Sierra Leona
VIRGINIA MATA, 36, Perú
MARGARITA VARGAS, 44, Yibuti
ARAMINTA ARAYA, 84, Antananarivo
EMILCE MONGE, 6, Martinica
JUAN MARIA HERRERA, 29, Taiwan
NELLY GUZMAN, 92, Canberra
ALICIA MORA, 43, Iraq
ASDRUBAL GERARDO MORA, 48, Tiflis
EDGAR CHAVES, 84, Pristina
RAIMUNDO MENDEZ, 3, Cabo Verde
JOSE WENCESLAO MORA, 27, San Cristobal y Nevis
NURIA MARIA CUBERO, 90, Lilongüe
CARLOS VALVERDE, 42, Botswana
VICTOR MANUEL ANDRADE, 94, Túnez
MAINOR ZUÑIGA, 26, Port Louis
LUIS ENRIQUE FALLAS, 75, Kiribati
TERESA SALAZAR, 83, Tokelau
AMABLE JIMENEZ, 36, Argel
JORGE SOLIS, 24, Panamá
DAISY SINAI RIOS, 25, Nairobi
EDGAR ALEJANDRO ELIZONDO, 58, Uganda
WALTER CHINCHILLA, 99, Togo
OLGA SABORIO, 48, Doha
LIGIA MARIA ALFARO, 7, Antillas Holandesas
EDUARDO MENANI, 81, Gibraltar
GERARDO JEREZ, 67, Chipre
JUAN LUIS CASTRO, 83, Yamusukro
OBED JIMENEZ, 26, Ankara
JAIME BUSTAMANTE, 41, Timor Oriental
NINFA SOCORRO UREÑA, 64, Maseru
IRMA HAYDEE MADRIGAL, 56, Zaire
CARLOS MANUEL CASCANTE, 46, Macao
ELSA HERNANDEZ, 1, Togo
MARIA DEL CARMEN RAMIREZ, 4, Birmania
IRSA MARIA SOLIS, 7, Chile
FIDELINA HERRERA, 7, Zagreb
JUAN BAUTISTA ZUÑIGA, 59, Thimphu
CARMEN VARGAS, 82, Isla Jan Mayen
ROSA MARIA CORRALES, 15, Atenas
AURORA NAVARRO, 17, Cabo Verde
GERARDO FRANCISCO VASQUEZ, 17, Saint John
LIGIA MARIA ESCALANTE, 64, Jerusalén
JORGE OMAR BONILLA, 59, Isla Ascension
ROSA UMAÑA, 83, República Dominicana
JUDITH ROBLES, 24, Senegal
NIDIA MAYELA VALVERDE, 55, Bangui
IRENE VARGAS, 38, Amán
JORGE JESUS GAMBOA, 64, Kiribati
RAMON AZOFEIFA, 18, Vietnam
MERCEDES FERNANDEZ, 64, Helsinki
MARTA CHAVES, 61, Windhoek
CORALIA PEREZ, 7, Bermudas
MARCOS GERARDO ALVARADO, 87, Reino Unido
RODOLFO ENRIQUE RAMIREZ, 49, Palau
OLGA MARIA NAVARRO, 77, Lesotho
CARLOS ENRIQUE MURILLO, 14, Santo Domingo
CARMEN LIDIA RODRIGUEZ, 85, Belgrado
MYRIAM SOLANO, 7, Costa de Marfil
LUZ MARINA HIDALGO, 52, Lima
ALEXANDER ARAYA, 44, Puerto España
CLAUDIO MENA, 43, Samoa Americana
NESTOR UREÑA, 40, Vilna
ZARAY VARGAS, 70, Sierra Leona
CARLOS LUIS BERMUDEZ, 70, Sudán
YOLANDA GONZALEZ, 14, Saná
EDWIN GERARDO MORALES, 47, Israel
JORGE EDUARDO ZUMBADO, 2, Estados Federados de Micronesia
GERARDO CORDOBA, 55, Islas Marshall
ADALBERTO DOMONKOS, 82, Estonia
MARGARITA ESPINOZA, 1, Hong Kong
LUZ MARINA ROBLES, 49, Chisináu
JORGE ENRIQUE HUETE, 63, Sudán
MARIA ISABEL CHACON, 52, Swazilandia
FRANKLIN QUESADA, 14, Abu Dabi
JOSE FRANCISCO MORALES, 35, Samoa
GERARDO BLANCO, 46, Islas Virgenes Británicas
WALTER WEALKINS, 34, Biskek
DORIS CONTRERAS, 58, Bisáu
FREDDY JIMENEZ, 7, Tonga
LUZ MARINA CECILIANO, 76, Bosnia-Herzegovina
FERNANDO QUESADA, 31, Roma
VICTOR MANUEL RIVERA, 85, Kuwait
FIDELIA FLORIA CECILIANO, 25, Jerusalén Este
RIGOBERTO ROJAS, 23, Guyana
ELIDA AGUERO, 67, Malawi
BETTY MIRANDA, 22, Ghana
DAMARIS INNECKEN, 92, Palikir
CARLOS EDUARDO MONGE, 88, Paramaribo
AMADA CORDERO, 79, Manila
AIDA ANGULO, 37, Ruanda
MARIA DEL ROSARIO BRIZUELA, 27, Birmania
JOSE ANTONIO PORTUGUEZ, 53, Jordania
BLANCA CHINCHILLA, 25, Victoria
EDGAR ORLANDO FALLAS, 6, Kiribati
CARLOS MANUEL ARGUEDAS, 57, Nicaragua
JOSE FRANCISCO SEGURA, 83, Zagreb
MIGUEL CALDERON, 59, Katmandú
HUGO HERNANDEZ, 68, Singapur
MARIA CECILIA UREÑA, 51, Kiribati
FLOR DE MARIA ESPINOZA, 15, Islamabad
CARLOS ACOSTA, 65, Puerto Rico
ROGER MORA, 43, Kazajstán
ELVIRA DELGADO, 48, Gran Bretaña
MARIA CECILIA RAMIREZ, 63, Liberia
CLARA ROSA CHAVARRIA, 72, Burundi
NEYRA MARINA MATA, 37, Port Vila
DORIS DELGADO, 89, Libia
JOSE MAINOR VALDES, 74, Brasilia
VICTOR MANUEL JIMENEZ, 65, México
MARTA EUGENIA MEOÑO, 65, Riga
HERNAN ALBERTO NAVARRO, 11, El Salvador
ZORAIDA MORA, 4, Iraq
GABRIELA TREJOS, 32, Abu Dabi
EDUARDO CHACON, 77, Harare
VICTOR MIGUEL ARROYO, 85, Luanda
CESAR FALLAS, 83, Suiza
DAGOBERTO GUZMAN, 7, Antigua y Barbuda
ALVARO MENA, 51, Gambia
EDUARDO CUBILLO, 34, Roma
MARIA CECILIA MORA, 70, Porto-Novo
ERNESTO MORA, 61, Adís Abeba
FLORIBETH MESEN, 85, Hungría
MARIA DE LOS ANGELES RETANA, 76, Jordania
ALICE CARMEN GONZALEZ, 74, Vaticano
JORGE WILBURG MIRANDA, 65, Islas Virgenes Americanas
ADELA CAVALLINI, 14, Dusambé
GUILLERMO MARENCO, 60, Chisináu
ANALIA CRUZ, 31, Kingstown
RODRIGO ENRIQUE ARROYO, 8, Liberia
ANA TERAN, 35, República Centroafricana
AMALIA ROLDAN, 21, Laos
LUZ MARIA MORA, 25, Sri Lanka
MAURA ULLENEIDA MORA, 31, Territorio Británico del Océano Indico
MARIA ESTER VILLALOBOS, 18, Islas Feroe
LIGIA CASASOLA, 38, Chisináu
YORLENY ROJAS, 43, Islamabad
CARLOS FEDERICO TINOCO, 47, Chipre
ANDRES FRANCISCO MARIN, 23, Ecuador
IRENE MORA, 85, Conakri
FLOR MARIA HUERTAS, 44, Portugal
JESUS MARIA MORA, 32, Djibouti
GLADYS GONZALEZ, 17, Irán
MARIA ISABEL BALLESTERO, 55, Kiribati
JULIETA ACUÑA, 79, Bangladesh
ALCIDES HERNANDEZ, 15, Bahrein
MELBA ROSA CAMPOS, 86, Puerto Rico
SOLEDAD UREÑA, 72, Islandia
RAFAEL ANGEL VARGAS, 82, Varsovia
MARIA DEL CARMEN GRANADOS, 52, Reunión
ALCIDES CHACON, 47, Federación Rusa
CARLOS ALBERTO MUÑOZ, 84, Nasáu
VICTOR MANUEL CESPEDES, 80, Belmopán
MARIA ESTER MADRIGAL, 85, Riad
CARMEN ROSA JIMENEZ, 74, República Guinea
CARMEN FERNANDEZ, 82, Malawi
ILDA ANGELA GUERRERO, 28, Pionyang
REMIGIO MONTERO, 12, Yibuti
MARIA LUISA CORDERO, 42, República Centroafricana
AMIRA GUTIERREZ, 87, Camboya
VICTOR VALVERDE, 30, Guyana
CARMEN HERNANDEZ, 72, Saint John
MARIETTA VILLALTA, 68, Djibouti
RONALD CASTILLO, 47, Reino Unido
CARLOS LUIS JIMENEZ, 95, Italia
EDGAR MARIO CESPEDES, 78, Israel
RODRIGO ALBERTO DE LA O, 60, Mbabane
MANUEL FRANCISCO QUESADA, 53, Porto-Novo
JOSE NAVARRO, 65, Dodoma
STEPHEN MADDEN, 88, Timor Oriental
VICTOR MANUEL JIMENEZ, 74, Suva
ANTONIO AUDILIO JIMENEZ, 94, Haiti
LUIS DAGOBERTO ARAYA, 40, España
MARIA ELSA LOPEZ, 2, Estocolmo
RAFAEL ANGEL GARBANZO, 81, Angola
MARIA NESSA QUIROS, 96, Skopie
HELEODORA CORDOBA, 91, Italia
MIRIAM DE LOS ANGELES SANABRIA, 41, Granada
RAFAEL ARAYA, 49, Kingston
ELOY GARCIA, 15, Camboya
RAIMUNDO LEON, 88, Francia
JOSE MADRIZ, 16, Nigeria
MARIA ELENA LEON, 11, Micronesia
ISIDRO CHINCHILLA, 90, Tadjikistan
JORGE ISAAC BORGE, 44, Yuba
EDUVIGIS MORA, 80, Moldavia
JOSE VICENTE SALAZAR, 73, Gambia
CARLOS ANTONIO MONTOYA, 64, Saint George
EMILCE MORENO, 85, Sierra Leona
ROBINSON ANTONIO BARRANTES, 9, Croacia
EMMA BRADE, 55, Estados Unidos
CARMEN UREÑA, 64, Berna
MARIA CANDIDA BLANCO, 5, Bangkok
ALBA MARGARITA CHAVES, 49, Palikir
MARIA EUGENIA LORIA, 78, Corea del Norte
PEREGRINA MORA, 87, Myanmar
JOSE GAMBOA, 21, Isla Ascension
ANGELA BETSAIDA CORDOBA, 44, Burkina Faso
NORMA ESPINOZA, 34, Damasco
CARMEN MAYRA BARBOZA, 25, Suva
SANDRA GOMEZ, 28, Wallis y Futuna
MIGUEL CALDERON, 1, Islas Cocos
CARLOS FRANCISCO ALFARO, 91, Barbados
FLORA AGUILAR, 58, San Vincente y Granadinas
LUZ CLEMENCIA MORA, 14, Maputo
ANTONIO CORRALES, 83, Caracas
EFIGENIA ARROYO, 38, Guernsey
EDITH SOLIS, 44, Micronesia
ROSALIA SANCHEZ, 53, Andorra
LUZ MONGE, 95, Antananarivo
CARLOS LUIS CASTRO, 72, Yakarta
MARIA MARTA FALLAS, 61, Argelia
VIRGILIO ZUÑIGA, 81, Mauritania
CARLOS ALBERTO FLORES, 43, Podgorica
OSCAR SOTO, 76, Bielorrusia
JORGE JAUBERT, 72, Palestina
EDGAR ESPINOZA, 83, Azerbaiyán
JORGE MANUEL SALAS, 7, Kiribati
MARIA DEL CARMEN ALVARADO, 37, Brasilia
GERMAN OBANDO, 42, Reino Unido
VICENTA TERESA DURAN, 88, Bahamas
FLORINDA MADRIGAL, 25, Andorra
CARLOS LUIS RETANA, 17, Hong Kong
MARIA CECILIA CASTILLO, 40, Victoria
ZORAIDA VARGAS, 45, Windhoek
CECILIA SANCHEZ, 55, Funafuti
DAISY ILAMA, 66, Bamako
JEANNETTE DIAZ, 96, Brunei Darussalam
JORGE ELIAS MADRIZ, 77, Saná
LIGIA CUBERO, 27, Wellington
JOSE ROBERTO PIZARRO, 99, Montserrat
GERARDO GARITA, 78, Irlanda
MARCO BRAULIO CASTRO, 44, Taiwan
ETELVIDA QUESADA, 54, Djibouti
ARABELA CORRALES, 52, Chipre
ALVARO TABASH, 35, Tokio
WILLIAM PEREZ, 30, Burkina Faso
CECILIA ARGUEDAS, 20, Ereván
GERARDO ABILIO MONGE, 95, Gibraltar
LUIS ALFREDO MACHADO, 22, Tokio
GERARDO ALFONSO ACUÑA, 99, Montevideo
MARIA HORTENSIA CASCANTE, 13, Helsinki
MARIA LIGIA SEGURA, 53, Tadjikistan
MANUEL VEGA, 48, Bangkok
IGNACIO CALDERON, 22, Bucarest
MARIA ROSA CASCANTE, 67, República del Congo
MARIA ELENA DURAN, 53, Daca
GERARDO ARIAS, 81, Wallis y Futuna
HILDA MARIA DURAN, 89, Isla Christmas
MARTA MARGARITA RAMIREZ, 76, Roma
VICTOR ZUÑIGA, 9, Ghana
RICARDO AZOFEIFA, 33, Guyana
LUCIA ATILIA PORRAS, 3, Moldavia
JERONIMO ALPIZAR, 23, Praia
JEANNETTE MORALES, 95, Palau
JOSE LUIS AGUERO, 39, Vientián
MANUEL OTAROLA, 45, Honduras
ELIZABETH ARIAS, 30, Bahrein
HECTOR HERRA, 89, Nukualofa
MARIA ISABEL LORIA, 13, Yamusukro
RODOLFO CASTILLO, 41, Maputo
JUAN LUIS BONILLA, 96, Kirguistán
FRIDA GUISELA STEINBERG, 79, Malabo
LETICIA GUEVARA, 82, Guinea Ecuatorial
ELIA CALDERON, 8, Asmara
EVELIA SEGURA, 82, Ulán Bator
LETICIA SOLIS, 78, Porto-Novo
SONIA RAFAELA LEON, 13, Nueva Caledonia
RIGOBERTO ARIAS, 26, Arabia Saudita
JAIME MARIN, 14, Israel
MARIA EUGENIA SANCHO, 43, Cabo Verde
YAMILETTE ANGULO, 47, Roseau
MARIA CECILIA ZUÑIGA, 2, República Checa
JOSE DE LOS ANGELES TORRES, 5, Tokio
ANA VITA PORRAS, 56, Micronesia
MARTA ELENA CALVO, 82, Mauricio
ESPERANZA REY, 31, Brazzaville
JORGE EDUARDO RODRIGUEZ, 4, Asunción
MANUEL ANGEL QUESADA, 84, Samoa Americana
ROSA CORDERO, 51, Asjabad
TERESA FERNANDEZ, 37, Siria
FLORA MARIA SOLIS, 59, Damasco
AMABLE MIRANDA, 37, Serbia
MARIA TERESA PORTUGUEZ, 25, Reikiavik
NELLY UMAÑA, 49, Tegucigalpa
RAFAEL ANGEL VALVERDE, 16, Reunión
GRACE MASIS, 31, Pretoria
ALEJANDRO PORRAS, 52, Madrid
RAFAEL TENORIO, 96, Myanmar
HERIBERTO SANCHEZ, 92, Myanmar
MARIA DE LOS ANGELES UREÑA, 73, Brasilia
ELIZABETH PICADO, 37, Managua
HILDA SALAZAR, 40, Bahamas
NORA MARIA SOLANO, 47, China
MARIO MARIN, 76, Pretoria
EDUVINA AZOFEIFA, 75, Dinamarca
GLORIA ABARCA, 26, Tiflis
IRMA ANGULO, 25, Togo
MARIA CAMPOS, 39, Managua
ANA MARIA VILLALOBOS, 46, Omán
EDITH DIAZ, 74, Birmania
MARIA ANITA BARRIENTOS, 35, Haiti
JORGE ENRIQUE SANCHEZ, 96, Malasia
ALICE CARMEN GONZALEZ, 40, Niger
VIRGINIA MARIA SANCHEZ, 4, Georgia
MARIA DE LOS ANGELES TENORIO, 74, Marianas del Nort
FRANCISCO CHAMBERLAIN, 87, República Centroafricana
ELISA PEREZ, 16, San Marino
NORMA LOBO, 77, Norfolk Island
ELIZABETH CASASOLA, 41, Bucarest
FLOR MARIA DELGADO, 36, Victoria
MARIA DEL ROSARIO UMAÑA, 38, Santa Elena
DORA ARGUEDAS, 50, Vientián
MARGEN CESPEDES, 52, San José
AURORA ARAYA, 22, Nueva Zelanda
NORMA MONGE, 21, Kuwait
BLANCA ROSA CALVO, 82, Lesotho
XINIA MARIA SOLANO, 69, Ámsterdam
DEIFILIO ABARCA, 16, Palestina
EMERITA ABARCA, 4, Papúa-Nueva Guinea
ELIZABETH LAMAS, 11, Finlandia
YAMILETTE FERNANDEZ, 24, Windhoek
LUIS GERMAN VILLEGAS, 57, Martinica
FERNANDO ARTURO SANCHO, 64, Georgetown
RICARDO VARGAS, 38, Laos
GERARDO ANTONIO QUESADA, 90, España
ADELINA AZOFEIFA, 85, Bermudas
JOSE JOAQUIN JIMENEZ, 58, Adís Abeba
VICTOR MANUEL MENA, 29, Kampala
ERMIDA DESANTI, 36, Bangui
ANABELIO GERARDO LEIVA, 29, Bakú
MARIA MAYELA MONTERO, 56, Pristina
GUILLERMO SAENZ, 34, Isla Jan Mayen
FELICIA MARIA PIEDRA, 59, El Salvador
CLAUDIA ALZAMIRA VINDAS, 31, Nasáu
AMANCIO GODINEZ, 10, Perú
ANA CECILIA SANCHEZ, 6, Nasáu
LUZ SEGURA, 64, Ucrania
IRENE CHINCHILLA, 90, Alemania
ARACELLY VILLALOBOS, 1, Djibouti
LUCILA CORRALES, 73, San Pedro y Miquelón
GERARDO ANTONIO MADRIGAL, 98, Asunción
TERESITA SALAZAR, 32, Islandia
VILMA MARIETTA ROJAS, 72, Malasia
ORLANDO ISRAEL RODRIGUEZ, 53, Berna
ANGEL CLEMENTE MARIN, 75, Mascate
MARIA ISABEL SANCHEZ, 57, Wallis y Futuna
FEDERICO GUILLERMO LARA, 27, Bélgica
BERNARDITA ACOSTA, 33, Lima
RAFAELA PICADO, 62, Gran Bretaña
ROSA MARIA CUBILLO, 18, República Centroafricana
GERMAN SANCHEZ, 70, Nukualofa
MARIA ISABEL FERNANDEZ, 32, Dodoma
MARCO ANTONIO BLANCO, 59, Ciudad del Vaticano
DIGNA MARTA RODRIGUEZ, 19, Alemania
RAFAEL ANGEL FALLAS, 55, Etiopía
OLGA MARTA ARIAS, 16, Trinidad y Tobago
ADORACION MORA, 85, Vilna
MARIA AURELIA CASTRO, 96, Yibuti
RAMON HUMBERTO MONGE, 66, San Tomé y Príncipe
VICTOR MANUEL GONZALEZ, 57, Kiev
GUIDO JIMENEZ, 77, Ciudad del Vaticano
NELLY ECHEVERRIA, 3, Serbia
JULIA BADILLA, 92, Honiara
LUIS GERARDO RAMOS, 9, Kinsasa
CARLOS ALBERTO RETANA, 100, Jartum
ANA VIRGINIA ZAVALETA, 46, Bogotá
FRANKLIN JIMENEZ, 7, Brunei Darussalam
LUZ MARIA CRUZ, 23, Portugal
MARIA DE LOS ANGELES SOTO, 1, Panamá
WALTER CHAVES, 53, Barbados
CLARA HORTENSIA MONTERO, 90, Tonga
ALFREDO CARMONA, 86, Sofía
ARACELLY BARRANTES, 53, México
SUZETTE RAVENTOS, 29, Costa de Marfil
CARMEN MARIA SANCHEZ, 23, Astaná
DANIEL ISAAC SEGURA, 69, Minsk
ISIDRO BENJAMIN HERNANDEZ, 80, Luxemburgo
VILMA BRENES, 100, Malta
VILMA MARIA BARRANTES, 27, Bulgaria
ALICIA BARRANTES, 30, Copenhague
HUMBERTO DURAN, 52, Naipyidó
HILDA ZENEIDA MATA, 13, Suva
LUZMILDA CASTILLO, 19, Turquía
MAYELA CORRALES, 64, Comores
OFELIA ROLDAN, 33, Montenegro
ELBA CARMEN HINES, 62, Vilna
MARY SEGURA, 19, Isla Ascension
JORGE BLANCO, 74, Niue
NAZARIA ROJAS, 52, San Pedro y Miquelón
BELISARIO HIDALGO, 64, Nicosia
JAVIER NAVARRO, 21, Jordania
MARIO CAMPOS, 66, Suecia
RIGOBERTO CORDERO, 10, Dodoma
GILBERT SALAS, 6, Jerusalén Este
BERTILIA VARGAS, 85, Tokelau
EDUARDO VARGAS, 38, Yuba
GERARDO ALVAREZ, 62, República Dominicana
MANUEL ANTONIO ZUÑIGA, 19, Groenlandia
CARMEN GLADYS CAMPOS, 14, Honduras
LIGIA MARIA VARGAS, 28, Santo Domingo
CARMEN QUIROS, 43, Tegucigalpa
MERCEDES ARIAS, 25, Antillas Holandesas
EUGENIA CHAVERRI, 72, Túnez
ODILIE DIAZ, 35, Oslo
SONIA MARIA MONTERO, 35, Gibraltar
ABILIAN CHAVARRIA, 67, Alemania
JUAN LUIS CASTRO, 70, Mbabane
JORGE OROZCO, 100, Pekín
JORGE ARTURO CARVAJAL, 5, Bangkok
RAFAEL ANGEL PICADO, 80, Praga
LIDIETTE ALPIZAR, 9, Praia
ELVIRA MADRIGAL, 15, Tiflis
FLOR MARIA AZOFEIFA, 46, San Marino
ETELGIVE CHACON, 20, Alemania
EMILCE UMAÑA, 57, Yamena
MARIA SANCHEZ, 36, Bangladesh
HILDA MADRIGAL, 98, Taskent
VICTORIA DURAN, 12, Cabo Verde
NIDIA MARIA CALDERON, 2, Suiza
JESUS VARGAS, 48, Perú
JORGE GRANADOS, 2, Dili
MELVIN BARQUERO, 92, Alemania
ELIZABETH ONEILL, 11, Benín
MAYORI CORDERO, 8, Georgetown
FLORA ZORAIDA HERNANDEZ, 24, Brunei Darussalam
RAMONA GLORIA CARVAJAL, 52, Funafuti
ELIAS MURILLO, 83, Nicosia
MARIA CECILIA PIEDRA, 73, Vientián
JORGE ARTURO BRENES, 5, Tonga
MAYRA CASCANTE, 2, Naipyidó
ORLANDO HERRADORA, 63, Kingston
MARIA DEL SOCORRO CHAVES, 18, Islas Feroe
JOSE GERARDO UREÑA, 97, Mbabane
LUZ MARINA OBANDO, 69, Dinamarca
ISRAEL SOTO, 58, Sri Jayawardenapura Kotte
IRMA SOLIS, 34, Kuala Lumpur
NOEMY QUIROS, 14, Islamabad
HUGO ALCIDES MONGE, 39, Eritrea
EMA PILAR SALAZAR, 3, Marianas del Nort
ZOILA ROSA GAMBOA, 40, Arabia Saudita
MIGUEL ANGEL VEGA, 90, Kingston
CARLOS GUILLERMO FERNANDEZ, 68, Kigali
ADITA GODINEZ, 25, San Marino
MARIA CRISTINA CESPEDES, 55, Skopie
HILDA CARRION, 25, República del Congo
URBINO GAMBOA, 96, Kinsasa
LIDIETTE VALVERDE, 16, Helsinki
JOSE GONZALEZ, 92, Tanzania
MARGARITA CHAVARRIA, 41, Moldavia
GUILLERMO FERNANDO CABRERA, 71, Tadjikistan
MARIA DEL CARMEN NUÑEZ, 65, Budapest
TERESA ROLDAN, 79, Colombia
ALICIA ACOSTA, 21, Brunei Darussalam
GUILLERMO BERNAL SALAS, 95, República del Congo
ENRIQUE NUÑEZ, 29, Nicaragua
BLANCA NIEVES FALLAS, 58, Azerbaiyán
MARIA EUGENIA PARIS, 84, Gibraltar
TERESITA MARROQUIN, 30, Rusia
ELVIRA MADRIGAL, 69, Honduras
ROXANA TREJOS, 98, Jerusalén Este
JENNY CASTRO, 38, Dodoma
RAUL ALVAREZ, 70, Angola
FRANCISCO GUERRERO, 62, Windhoek
LIDIETT CHACON, 76, Santiago
ALVARO ENRIQUE PICADO, 18, Groenlandia
ELODIA ESTELA CHINCHILLA, 96, Birmania
OMAR MORA, 11, Berna
MANUEL ANTONIO AZOFEIFA, 26, San José
MAIRA DEL SOCORRO VARGAS, 70, Niamey
JULIO AGUERO, 64, Islas Virgenes Británicas
OMAR CARVAJAL, 99, Praga
MARIA CECILIA PEREZ, 46, Malí
VILMA DIAZ, 47, Marianas del Nort
IRENE CECILIA VASQUEZ, 55, Islamabad
PABLO MERINO, 74, Kiribati
RITA MARIA HERNANDEZ, 14, Uganda
FLOR DE MARIA SOTO, 18, Surinam
AIDA ALVAREZ, 5, Saint George
MARIA DE LOS ANGELES MUÑOZ, 25, Jamaica
GLADYS AVILA, 12, Sarajevo
ROGELIO LOBO, 100, Montevideo
